<?xml version="1.0" encoding="UTF-8"?>
<routes xmlns:xsi="http://www.w3.org/2001/XMLSchema-instance" xsi:noNamespaceSchemaLocation="http://sumo.dlr.de/xsd/routes_file.xsd">
	<!-- Routes -->
	<route id="route_E1_A1" edges="29380609 295497930 34211800 98789825 A1"/>
	<route id="route_E1_A2" edges="29380609 295497930 30013884 30013882#1 30013882#1.395 100553197 A2"/>
	<route id="route_E1_A3" edges="29380609 295497930 30013884 30013882#1 30013882#1.395 34211140#1 34211140#1.94 29379303 29379303.452 29380492#0-AddedOnRampEdge 29380492#0 29380492#0.292 237821831 A3"/>
	<route id="route_E1_A4" edges="29380609 295497930 30013884 30013882#1 30013882#1.395 34211140#1 34211140#1.94 29379303 29379303.452 29380492#0-AddedOnRampEdge 29380492#0 29380492#0.292 29380492#1 29380492#1.94 29380492#1.462 30014458#1-AddedOnRampEdge 30014458#1 30014458#1-AddedOffRampEdge 30014458#1-AddedOffRampEdge.89 107041762"/>
	<route id="route_E1_A5" edges="29380609 295497930 30013884 30013882#1 30013882#1.395 34211140#1 34211140#1.94 29379303 29379303.452 29380492#0-AddedOnRampEdge 29380492#0 29380492#0.292 29380492#1 29380492#1.94 29380492#1.462 30014458#1-AddedOnRampEdge 30014458#1 30014458#1-AddedOffRampEdge 30014458#1-AddedOffRampEdge.89 34210905#1 34210905#1.142 34210905#1.803 34210903#1-AddedOnRampEdge 34210903#1 34210903#1.197 34210903#2-AddedOnRampEdge 34210903#2 34210903#2.68 33212385"/>
	<route id="route_E1_AEnd" edges="29380609 295497930 30013884 30013882#1 30013882#1.395 34211140#1 34211140#1.94 29379303 29379303.452 29380492#0-AddedOnRampEdge 29380492#0 29380492#0.292 29380492#1 29380492#1.94 29380492#1.462 30014458#1-AddedOnRampEdge 30014458#1 30014458#1-AddedOffRampEdge 30014458#1-AddedOffRampEdge.89 34210905#1 34210905#1.142 34210905#1.803 34210903#1-AddedOnRampEdge 34210903#1 34210903#1.197 34210903#2-AddedOnRampEdge 34210903#2 34210903#2.68 34211572#1 34211572#1.105 34211572#1.713 34211542-AddedOnRampEdge 34211542-AddedOnRampEdge.79 34211542"/>
	
	<route id="route_E2_A3" edges="-E23 E24 E24.163 237823368 237823368.177 29380492#0-AddedOnRampEdge 29380492#0 29380492#0.292 237821831 A3"/>
	<route id="route_E2_A4" edges="-E23 E24 E24.163 237823368 237823368.177 29380492#0-AddedOnRampEdge 29380492#0 29380492#0.292 29380492#1 29380492#1.94 29380492#1.462 30014458#1-AddedOnRampEdge 30014458#1 30014458#1-AddedOffRampEdge 30014458#1-AddedOffRampEdge.89 107041762"/>
	<route id="route_E2_A5" edges="-E22 E24 E24.163 237823368 237823368.177 29380492#0-AddedOnRampEdge 29380492#0 29380492#0.292 29380492#1 29380492#1.94 29380492#1.462 30014458#1-AddedOnRampEdge 30014458#1 30014458#1-AddedOffRampEdge 30014458#1-AddedOffRampEdge.89 34210905#1 34210905#1.142 34210905#1.803 34210903#1-AddedOnRampEdge 34210903#1 34210903#1.197 34210903#2-AddedOnRampEdge 34210903#2 34210903#2.68 33212385"/>
	<route id="route_E2_AEnd" edges="E18 E21 E25 237823368 237823368.177 29380492#0-AddedOnRampEdge 29380492#0 29380492#0.292 29380492#1 29380492#1.94 29380492#1.462 30014458#1-AddedOnRampEdge 30014458#1 30014458#1-AddedOffRampEdge 30014458#1-AddedOffRampEdge.89 34210905#1 34210905#1.142 34210905#1.803 34210903#1-AddedOnRampEdge 34210903#1 34210903#1.197 34210903#2-AddedOnRampEdge 34210903#2 34210903#2.68 34211572#1 34211572#1.105 34211572#1.713 34211542-AddedOnRampEdge 34211542-AddedOnRampEdge.79 34211542"/>
	
	<route id="route_E3_A4" edges="-E13 E11 294719471#2 294719471#2.141 30014458#1-AddedOnRampEdge 30014458#1 30014458#1-AddedOffRampEdge 30014458#1-AddedOffRampEdge.89 107041762"/>
	<route id="route_E3_A5" edges="-E12 E11 294719471#2 294719471#2.141 30014458#1-AddedOnRampEdge 30014458#1 30014458#1-AddedOffRampEdge 30014458#1-AddedOffRampEdge.89 34210905#1 34210905#1.142 34210905#1.803 34210903#1-AddedOnRampEdge 34210903#1 34210903#1.197 34210903#2-AddedOnRampEdge 34210903#2 34210903#2.68 33212385"/>
	<route id="route_E3_AEnd" edges="E14 E10 E17 294719471#2 294719471#2.141 30014458#1-AddedOnRampEdge 30014458#1 30014458#1-AddedOffRampEdge 30014458#1-AddedOffRampEdge.89 34210905#1 34210905#1.142 34210905#1.803 34210903#1-AddedOnRampEdge 34210903#1 34210903#1.197 34210903#2-AddedOnRampEdge 34210903#2 34210903#2.68 34211572#1 34211572#1.105 34211572#1.713 34211542-AddedOnRampEdge 34211542-AddedOnRampEdge.79 34211542"/>
	
	<route id="sample_route_E2_A3" edges="E18 E21 E25 237823368 237823368.177 29380492#0-AddedOnRampEdge 29380492#0 29380492#0.292 237821831 A3"/>
	<route id="sample_route_E2_A4" edges="E18 E21 E25 237823368 237823368.177 29380492#0-AddedOnRampEdge 29380492#0 29380492#0.292 29380492#1 29380492#1.94 29380492#1.462 30014458#1-AddedOnRampEdge 30014458#1 30014458#1-AddedOffRampEdge 30014458#1-AddedOffRampEdge.89 107041762"/>
	<route id="sample_route_E2_A5" edges="E18 E21 E25 237823368 237823368.177 29380492#0-AddedOnRampEdge 29380492#0 29380492#0.292 29380492#1 29380492#1.94 29380492#1.462 30014458#1-AddedOnRampEdge 30014458#1 30014458#1-AddedOffRampEdge 30014458#1-AddedOffRampEdge.89 34210905#1 34210905#1.142 34210905#1.803 34210903#1-AddedOnRampEdge 34210903#1 34210903#1.197 34210903#2-AddedOnRampEdge 34210903#2 34210903#2.68 33212385"/>
	<route id="sample_route_E2_AEnd" edges="E18 E21 E25 237823368 237823368.177 29380492#0-AddedOnRampEdge 29380492#0 29380492#0.292 29380492#1 29380492#1.94 29380492#1.462 30014458#1-AddedOnRampEdge 30014458#1 30014458#1-AddedOffRampEdge 30014458#1-AddedOffRampEdge.89 34210905#1 34210905#1.142 34210905#1.803 34210903#1-AddedOnRampEdge 34210903#1 34210903#1.197 34210903#2-AddedOnRampEdge 34210903#2 34210903#2.68 34211572#1 34211572#1.105 34211572#1.713 34211542-AddedOnRampEdge 34211542-AddedOnRampEdge.79 34211542"/>
		
	<route id="sample_route_E3_A4" edges="E14 E10 E17 294719471#2 294719471#2.141 30014458#1-AddedOnRampEdge 30014458#1 30014458#1-AddedOffRampEdge 30014458#1-AddedOffRampEdge.89 107041762"/>
	<route id="sample_route_E3_A5" edges="E14 E10 E17 294719471#2 294719471#2.141 30014458#1-AddedOnRampEdge 30014458#1 30014458#1-AddedOffRampEdge 30014458#1-AddedOffRampEdge.89 34210905#1 34210905#1.142 34210905#1.803 34210903#1-AddedOnRampEdge 34210903#1 34210903#1.197 34210903#2-AddedOnRampEdge 34210903#2 34210903#2.68 33212385"/>
	<route id="sample_route_E3_AEnd" edges="E14 E10 E17 294719471#2 294719471#2.141 30014458#1-AddedOnRampEdge 30014458#1 30014458#1-AddedOffRampEdge 30014458#1-AddedOffRampEdge.89 34210905#1 34210905#1.142 34210905#1.803 34210903#1-AddedOnRampEdge 34210903#1 34210903#1.197 34210903#2-AddedOnRampEdge 34210903#2 34210903#2.68 34211572#1 34211572#1.105 34211572#1.713 34211542-AddedOnRampEdge 34211542-AddedOnRampEdge.79 34211542"/>
	
	<route id="route_E4_A5" edges="113980043 113980043.124 34210903#1-AddedOnRampEdge 34210903#1 34210903#1.197 34210903#2-AddedOnRampEdge 34210903#2 34210903#2.68 33212385"/>
	<route id="route_E4_AEnd" edges="113980043 113980043.124 34210903#1-AddedOnRampEdge 34210903#1 34210903#1.197 34210903#2-AddedOnRampEdge 34210903#2 34210903#2.68 34211572#1 34211572#1.105 34211572#1.713 34211542-AddedOnRampEdge 34211542-AddedOnRampEdge.79 34211542"/>
	<route id="route_E4b_A5" edges="134575595#3 33212769 33212769.33 34210903#2-AddedOnRampEdge 34210903#2 34210903#2.68 33212385"/>
	<route id="route_E4b_AEnd" edges="134575595#3 33212769 33212769.33 34210903#2-AddedOnRampEdge 34210903#2 34210903#2.68 34211572#1 34211572#1.105 34211572#1.713 34211542-AddedOnRampEdge 34211542-AddedOnRampEdge.79 34211542"/>
	<route id="route_E5_AEnd" edges="114320572 114320572.156 34211542-AddedOnRampEdge 34211542-AddedOnRampEdge.79 34211542"/>

	<!-- Define Vehicle Types  -->
<!-- Passenger Vehicles (car_aggr1 = Least -> car_aggr5 = Most Aggressive) -->
<vType id="car_aggr1" vClass="passenger" speedFactor="0.80" speedDev="0.08" tau="5.0" impatience="2.0" lcImpatience="1.0"
       lcCooperative="0.5" lcStrategic="60" lcSpeedGain="7.0" lcKeepRight="0.6"
       lcPushy="1.2" lcPushyGap="0.5" lcSublane="2.0" lcAssertive="2.0"
       lcTimeToImpatience="15" lcSigma="0.4" minGapLat="0.8"
       maxSpeed="35" accel="1.8" decel="3.0">
    <param key="laneChangeModel" value="SL2015"/>
</vType>

<vType id="car_aggr2" vClass="passenger" speedFactor="0.85" speedDev="0.09" tau="4.5" impatience="2.5" lcImpatience="1.5"
       lcCooperative="0.3" lcStrategic="40" lcSpeedGain="8.0" lcKeepRight="0.5"
       lcPushy="1.8" lcPushyGap="0.4" lcSublane="3.0" lcAssertive="2.8"
       lcTimeToImpatience="12" lcSigma="0.6" minGapLat="0.6"
       maxSpeed="35" accel="2.2" decel="4.0">
    <param key="laneChangeModel" value="SL2015"/>
</vType>

<vType id="car_aggr3" vClass="passenger" speedFactor="0.90" speedDev="0.10" tau="3.5" impatience="3.0" lcImpatience="2.0"
       lcCooperative="0.2" lcStrategic="25" lcSpeedGain="9.0" lcKeepRight="0.3"
       lcPushy="2.2" lcPushyGap="0.3" lcSublane="4.0" lcAssertive="3.5"
       lcTimeToImpatience="9" lcSigma="0.8" minGapLat="0.5"
       maxSpeed="40" accel="2.5" decel="5.0">
    <param key="laneChangeModel" value="SL2015"/>
</vType>

<vType id="car_aggr4" vClass="passenger" speedFactor="0.95" speedDev="0.12" tau="3.0" impatience="3.5" lcImpatience="2.5"
       lcCooperative="0.1" lcStrategic="15" lcSpeedGain="10.0" lcKeepRight="0.2"
       lcPushy="2.6" lcPushyGap="0.2" lcSublane="5.0" lcAssertive="4.2"
       lcTimeToImpatience="6" lcSigma="1.0" minGapLat="0.4"
       maxSpeed="40" accel="2.8" decel="6.0">
    <param key="laneChangeModel" value="SL2015"/>
</vType>

<vType id="car_aggr5" vClass="passenger" speedFactor="1.00" speedDev="0.15" tau="2.5" impatience="4.0" lcImpatience="3.0"
       lcCooperative="0.0" lcStrategic="5" lcSpeedGain="11.0" lcKeepRight="0.0"
       lcPushy="3.0" lcPushyGap="0.1" lcSublane="6.0" lcAssertive="5.0"
       lcTimeToImpatience="3" lcSigma="1.2" minGapLat="0.3"
       maxSpeed="45" accel="3.0" decel="8.0">
    <param key="laneChangeModel" value="SL2015"/>
</vType>

<!-- Motorcycles (mot_aggr1 = Least -> mot_aggr5 = Most Aggressive) -->
<vType id="mot_aggr1" vClass="motorcycle" speedFactor="0.85" speedDev="0.07" tau="4.0" impatience="2.0" lcImpatience="1.2"
       lcCooperative="0.5" lcStrategic="50" lcSpeedGain="8.0" lcKeepRight="0.6"
       lcPushy="1.5" lcPushyGap="0.5" lcSublane="3.0" lcAssertive="2.5"
       lcTimeToImpatience="15" lcSigma="0.5" minGapLat="0.6"
       maxSpeed="25" accel="3.5" decel="4.5">
    <param key="laneChangeModel" value="SL2015"/>
</vType>

<vType id="mot_aggr2" vClass="motorcycle" speedFactor="0.90" speedDev="0.08" tau="3.5" impatience="2.8" lcImpatience="1.8"
       lcCooperative="0.3" lcStrategic="35" lcSpeedGain="9.0" lcKeepRight="0.4"
       lcPushy="2.0" lcPushyGap="0.4" lcSublane="4.0" lcAssertive="3.0"
       lcTimeToImpatience="12" lcSigma="0.7" minGapLat="0.5"
       maxSpeed="30" accel="4.0" decel="6.0">
    <param key="laneChangeModel" value="SL2015"/>
</vType>

<vType id="mot_aggr3" vClass="motorcycle" speedFactor="0.93" speedDev="0.09" tau="3.0" impatience="3.8" lcImpatience="2.4"
       lcCooperative="0.2" lcStrategic="20" lcSpeedGain="10.0" lcKeepRight="0.3"
       lcPushy="2.5" lcPushyGap="0.3" lcSublane="5.0" lcAssertive="3.8"
       lcTimeToImpatience="9" lcSigma="0.9" minGapLat="0.4"
       maxSpeed="35" accel="4.5" decel="7.0">
    <param key="laneChangeModel" value="SL2015"/>
</vType>

<vType id="mot_aggr4" vClass="motorcycle" speedFactor="0.95" speedDev="0.10" tau="2.5" impatience="4.5" lcImpatience="3.0"
       lcCooperative="0.1" lcStrategic="10" lcSpeedGain="11.0" lcKeepRight="0.15"
       lcPushy="3.0" lcPushyGap="0.2" lcSublane="6.0" lcAssertive="4.5"
       lcTimeToImpatience="6" lcSigma="1.1" minGapLat="0.3"
       maxSpeed="40" accel="5.0" decel="9.0">
    <param key="laneChangeModel" value="SL2015"/>
</vType>

<vType id="mot_aggr5" vClass="motorcycle" speedFactor="1.0" speedDev="0.10" tau="1.5" impatience="5.0" lcImpatience="3.6"
       lcCooperative="0.0" lcStrategic="5" lcSpeedGain="10.0" lcKeepRight="0.0"
       lcPushy="3.5" lcPushyGap="0.1" lcSublane="7.0" lcAssertive="6.0"
       lcTimeToImpatience="3" lcSigma="1.3" minGapLat="0.2"
       maxSpeed="50" accel="6.0" decel="12.0">
    <param key="laneChangeModel" value="SL2015"/>
</vType>


<flow id="back_directionc1" type="car_aggr1" begin="0" end="10800" probability="0.1" from="E0" to="E9" departLane="best" />
<flow id="back_directionc2" type="car_aggr2" begin="0" end="10800" probability="0.1" from="E0" to="E9" departLane="best" />
<flow id="back_directionc3" type="car_aggr3" begin="0" end="10800" probability="0.1" from="E0" to="E9" departLane="best" />
<flow id="back_directionc4" type="car_aggr4" begin="0" end="10800" probability="0.1" from="E0" to="E9" departLane="best" />
<flow id="back_directionc5" type="car_aggr5" begin="0" end="10800" probability="0.1" from="E0" to="E9" departLane="best" />

<flow id="back_directionm1" type="mot_aggr1" begin="0" end="10800" probability="0.1" from="E0" to="E9" departLane="best" />
<flow id="back_directionm2" type="mot_aggr2" begin="0" end="10800" probability="0.1" from="E0" to="E9" departLane="best" />
<flow id="back_directionm3" type="mot_aggr3" begin="0" end="10800" probability="0.1" from="E0" to="E9" departLane="best" />
<flow id="back_directionm4" type="mot_aggr4" begin="0" end="10800" probability="0.1" from="E0" to="E9" departLane="best" />
<flow id="back_directionm5" type="mot_aggr5" begin="0" end="10800" probability="0.1" from="E0" to="E9" departLane="best" />

<flow id="sample_flow_E2_A3" type="car_aggr3" begin="0" end="10800" probability="0.01" route="sample_route_E2_A3" departLane="best" />
<flow id="sample_flow_E2_A4" type="car_aggr3" begin="0" end="10800" probability="0.01" route="sample_route_E2_A4" departLane="best" />
<flow id="sample_flow_E2_A5" type="car_aggr3" begin="0" end="10800" probability="0.01" route="sample_route_E2_A5" departLane="best" />
<flow id="sample_flow_E2_AEnd" type="car_aggr3" begin="0" end="10800" probability="0.01" route="sample_route_E2_AEnd" departLane="best" />

<flow id="sample_flow_E3_A4" type="car_aggr3" begin="0" end="10800" probability="0.01" route="sample_route_E3_A4" departLane="best" />
<flow id="sample_flow_E3_A5" type="car_aggr3" begin="0" end="10800" probability="0.01" route="sample_route_E3_A5" departLane="best" />
<flow id="sample_flow_E3_AEnd" type="car_aggr3" begin="0" end="10800" probability="0.01" route="sample_route_E3_AEnd" departLane="best" />

<flow id="flow_0_car_aggr1_route_E1_A1_lane0" departLane="0" type="car_aggr1" probability="0.019671340686161262" route="route_E1_A1" begin="0" end="600" > </flow>
<flow id="flow_0_car_aggr1_route_E1_A1_lane1" departLane="1" type="car_aggr1" probability="0.019671340686161262" route="route_E1_A1" begin="0" end="600" > </flow>
<flow id="flow_0_car_aggr1_route_E1_A1_lane2" departLane="2" type="car_aggr1" probability="0.019671340686161262" route="route_E1_A1" begin="0" end="600" > </flow>
<flow id="flow_0_car_aggr1_route_E1_A1_lane3" departLane="3" type="car_aggr1" probability="0.019671340686161262" route="route_E1_A1" begin="0" end="600" > </flow>
<flow id="flow_0_car_aggr2_route_E1_A1_lane0" departLane="0" type="car_aggr2" probability="0.019671340686161262" route="route_E1_A1" begin="0" end="600" > </flow>
<flow id="flow_0_car_aggr2_route_E1_A1_lane1" departLane="1" type="car_aggr2" probability="0.019671340686161262" route="route_E1_A1" begin="0" end="600" > </flow>
<flow id="flow_0_car_aggr2_route_E1_A1_lane2" departLane="2" type="car_aggr2" probability="0.019671340686161262" route="route_E1_A1" begin="0" end="600" > </flow>
<flow id="flow_0_car_aggr2_route_E1_A1_lane3" departLane="3" type="car_aggr2" probability="0.019671340686161262" route="route_E1_A1" begin="0" end="600" > </flow>
<flow id="flow_0_car_aggr3_route_E1_A1_lane0" departLane="0" type="car_aggr3" probability="0.019671340686161262" route="route_E1_A1" begin="0" end="600" > </flow>
<flow id="flow_0_car_aggr3_route_E1_A1_lane1" departLane="1" type="car_aggr3" probability="0.019671340686161262" route="route_E1_A1" begin="0" end="600" > </flow>
<flow id="flow_0_car_aggr3_route_E1_A1_lane2" departLane="2" type="car_aggr3" probability="0.019671340686161262" route="route_E1_A1" begin="0" end="600" > </flow>
<flow id="flow_0_car_aggr3_route_E1_A1_lane3" departLane="3" type="car_aggr3" probability="0.019671340686161262" route="route_E1_A1" begin="0" end="600" > </flow>
<flow id="flow_0_car_aggr4_route_E1_A1_lane0" departLane="0" type="car_aggr4" probability="0.019671340686161262" route="route_E1_A1" begin="0" end="600" > </flow>
<flow id="flow_0_car_aggr4_route_E1_A1_lane1" departLane="1" type="car_aggr4" probability="0.019671340686161262" route="route_E1_A1" begin="0" end="600" > </flow>
<flow id="flow_0_car_aggr4_route_E1_A1_lane2" departLane="2" type="car_aggr4" probability="0.019671340686161262" route="route_E1_A1" begin="0" end="600" > </flow>
<flow id="flow_0_car_aggr4_route_E1_A1_lane3" departLane="3" type="car_aggr4" probability="0.019671340686161262" route="route_E1_A1" begin="0" end="600" > </flow>
<flow id="flow_0_car_aggr5_route_E1_A1_lane0" departLane="0" type="car_aggr5" probability="0.019671340686161262" route="route_E1_A1" begin="0" end="600" > </flow>
<flow id="flow_0_car_aggr5_route_E1_A1_lane1" departLane="1" type="car_aggr5" probability="0.019671340686161262" route="route_E1_A1" begin="0" end="600" > </flow>
<flow id="flow_0_car_aggr5_route_E1_A1_lane2" departLane="2" type="car_aggr5" probability="0.019671340686161262" route="route_E1_A1" begin="0" end="600" > </flow>
<flow id="flow_0_car_aggr5_route_E1_A1_lane3" departLane="3" type="car_aggr5" probability="0.019671340686161262" route="route_E1_A1" begin="0" end="600" > </flow>
<flow id="flow_0_mot_aggr1_route_E1_A1_lane0" departLane="0" type="mot_aggr1" probability="0.0021857045206845845" route="route_E1_A1" begin="0" end="600" > </flow>
<flow id="flow_0_mot_aggr1_route_E1_A1_lane1" departLane="1" type="mot_aggr1" probability="0.0021857045206845845" route="route_E1_A1" begin="0" end="600" > </flow>
<flow id="flow_0_mot_aggr1_route_E1_A1_lane2" departLane="2" type="mot_aggr1" probability="0.0021857045206845845" route="route_E1_A1" begin="0" end="600" > </flow>
<flow id="flow_0_mot_aggr1_route_E1_A1_lane3" departLane="3" type="mot_aggr1" probability="0.0021857045206845845" route="route_E1_A1" begin="0" end="600" > </flow>
<flow id="flow_0_mot_aggr2_route_E1_A1_lane0" departLane="0" type="mot_aggr2" probability="0.0021857045206845845" route="route_E1_A1" begin="0" end="600" > </flow>
<flow id="flow_0_mot_aggr2_route_E1_A1_lane1" departLane="1" type="mot_aggr2" probability="0.0021857045206845845" route="route_E1_A1" begin="0" end="600" > </flow>
<flow id="flow_0_mot_aggr2_route_E1_A1_lane2" departLane="2" type="mot_aggr2" probability="0.0021857045206845845" route="route_E1_A1" begin="0" end="600" > </flow>
<flow id="flow_0_mot_aggr2_route_E1_A1_lane3" departLane="3" type="mot_aggr2" probability="0.0021857045206845845" route="route_E1_A1" begin="0" end="600" > </flow>
<flow id="flow_0_mot_aggr3_route_E1_A1_lane0" departLane="0" type="mot_aggr3" probability="0.0021857045206845845" route="route_E1_A1" begin="0" end="600" > </flow>
<flow id="flow_0_mot_aggr3_route_E1_A1_lane1" departLane="1" type="mot_aggr3" probability="0.0021857045206845845" route="route_E1_A1" begin="0" end="600" > </flow>
<flow id="flow_0_mot_aggr3_route_E1_A1_lane2" departLane="2" type="mot_aggr3" probability="0.0021857045206845845" route="route_E1_A1" begin="0" end="600" > </flow>
<flow id="flow_0_mot_aggr3_route_E1_A1_lane3" departLane="3" type="mot_aggr3" probability="0.0021857045206845845" route="route_E1_A1" begin="0" end="600" > </flow>
<flow id="flow_0_mot_aggr4_route_E1_A1_lane0" departLane="0" type="mot_aggr4" probability="0.0021857045206845845" route="route_E1_A1" begin="0" end="600" > </flow>
<flow id="flow_0_mot_aggr4_route_E1_A1_lane1" departLane="1" type="mot_aggr4" probability="0.0021857045206845845" route="route_E1_A1" begin="0" end="600" > </flow>
<flow id="flow_0_mot_aggr4_route_E1_A1_lane2" departLane="2" type="mot_aggr4" probability="0.0021857045206845845" route="route_E1_A1" begin="0" end="600" > </flow>
<flow id="flow_0_mot_aggr4_route_E1_A1_lane3" departLane="3" type="mot_aggr4" probability="0.0021857045206845845" route="route_E1_A1" begin="0" end="600" > </flow>
<flow id="flow_0_mot_aggr5_route_E1_A1_lane0" departLane="0" type="mot_aggr5" probability="0.0021857045206845845" route="route_E1_A1" begin="0" end="600" > </flow>
<flow id="flow_0_mot_aggr5_route_E1_A1_lane1" departLane="1" type="mot_aggr5" probability="0.0021857045206845845" route="route_E1_A1" begin="0" end="600" > </flow>
<flow id="flow_0_mot_aggr5_route_E1_A1_lane2" departLane="2" type="mot_aggr5" probability="0.0021857045206845845" route="route_E1_A1" begin="0" end="600" > </flow>
<flow id="flow_0_mot_aggr5_route_E1_A1_lane3" departLane="3" type="mot_aggr5" probability="0.0021857045206845845" route="route_E1_A1" begin="0" end="600" > </flow>
<flow id="flow_0_car_aggr1_route_E1_A2_lane0" departLane="0" type="car_aggr1" probability="0.021991295640222133" route="route_E1_A2" begin="0" end="600" > </flow>
<flow id="flow_0_car_aggr1_route_E1_A2_lane1" departLane="1" type="car_aggr1" probability="0.021991295640222133" route="route_E1_A2" begin="0" end="600" > </flow>
<flow id="flow_0_car_aggr1_route_E1_A2_lane2" departLane="2" type="car_aggr1" probability="0.021991295640222133" route="route_E1_A2" begin="0" end="600" > </flow>
<flow id="flow_0_car_aggr1_route_E1_A2_lane3" departLane="3" type="car_aggr1" probability="0.021991295640222133" route="route_E1_A2" begin="0" end="600" > </flow>
<flow id="flow_0_car_aggr2_route_E1_A2_lane0" departLane="0" type="car_aggr2" probability="0.021991295640222133" route="route_E1_A2" begin="0" end="600" > </flow>
<flow id="flow_0_car_aggr2_route_E1_A2_lane1" departLane="1" type="car_aggr2" probability="0.021991295640222133" route="route_E1_A2" begin="0" end="600" > </flow>
<flow id="flow_0_car_aggr2_route_E1_A2_lane2" departLane="2" type="car_aggr2" probability="0.021991295640222133" route="route_E1_A2" begin="0" end="600" > </flow>
<flow id="flow_0_car_aggr2_route_E1_A2_lane3" departLane="3" type="car_aggr2" probability="0.021991295640222133" route="route_E1_A2" begin="0" end="600" > </flow>
<flow id="flow_0_car_aggr3_route_E1_A2_lane0" departLane="0" type="car_aggr3" probability="0.021991295640222133" route="route_E1_A2" begin="0" end="600" > </flow>
<flow id="flow_0_car_aggr3_route_E1_A2_lane1" departLane="1" type="car_aggr3" probability="0.021991295640222133" route="route_E1_A2" begin="0" end="600" > </flow>
<flow id="flow_0_car_aggr3_route_E1_A2_lane2" departLane="2" type="car_aggr3" probability="0.021991295640222133" route="route_E1_A2" begin="0" end="600" > </flow>
<flow id="flow_0_car_aggr3_route_E1_A2_lane3" departLane="3" type="car_aggr3" probability="0.021991295640222133" route="route_E1_A2" begin="0" end="600" > </flow>
<flow id="flow_0_car_aggr4_route_E1_A2_lane0" departLane="0" type="car_aggr4" probability="0.021991295640222133" route="route_E1_A2" begin="0" end="600" > </flow>
<flow id="flow_0_car_aggr4_route_E1_A2_lane1" departLane="1" type="car_aggr4" probability="0.021991295640222133" route="route_E1_A2" begin="0" end="600" > </flow>
<flow id="flow_0_car_aggr4_route_E1_A2_lane2" departLane="2" type="car_aggr4" probability="0.021991295640222133" route="route_E1_A2" begin="0" end="600" > </flow>
<flow id="flow_0_car_aggr4_route_E1_A2_lane3" departLane="3" type="car_aggr4" probability="0.021991295640222133" route="route_E1_A2" begin="0" end="600" > </flow>
<flow id="flow_0_car_aggr5_route_E1_A2_lane0" departLane="0" type="car_aggr5" probability="0.021991295640222133" route="route_E1_A2" begin="0" end="600" > </flow>
<flow id="flow_0_car_aggr5_route_E1_A2_lane1" departLane="1" type="car_aggr5" probability="0.021991295640222133" route="route_E1_A2" begin="0" end="600" > </flow>
<flow id="flow_0_car_aggr5_route_E1_A2_lane2" departLane="2" type="car_aggr5" probability="0.021991295640222133" route="route_E1_A2" begin="0" end="600" > </flow>
<flow id="flow_0_car_aggr5_route_E1_A2_lane3" departLane="3" type="car_aggr5" probability="0.021991295640222133" route="route_E1_A2" begin="0" end="600" > </flow>
<flow id="flow_0_mot_aggr1_route_E1_A2_lane0" departLane="0" type="mot_aggr1" probability="0.002443477293358015" route="route_E1_A2" begin="0" end="600" > </flow>
<flow id="flow_0_mot_aggr1_route_E1_A2_lane1" departLane="1" type="mot_aggr1" probability="0.002443477293358015" route="route_E1_A2" begin="0" end="600" > </flow>
<flow id="flow_0_mot_aggr1_route_E1_A2_lane2" departLane="2" type="mot_aggr1" probability="0.002443477293358015" route="route_E1_A2" begin="0" end="600" > </flow>
<flow id="flow_0_mot_aggr1_route_E1_A2_lane3" departLane="3" type="mot_aggr1" probability="0.002443477293358015" route="route_E1_A2" begin="0" end="600" > </flow>
<flow id="flow_0_mot_aggr2_route_E1_A2_lane0" departLane="0" type="mot_aggr2" probability="0.002443477293358015" route="route_E1_A2" begin="0" end="600" > </flow>
<flow id="flow_0_mot_aggr2_route_E1_A2_lane1" departLane="1" type="mot_aggr2" probability="0.002443477293358015" route="route_E1_A2" begin="0" end="600" > </flow>
<flow id="flow_0_mot_aggr2_route_E1_A2_lane2" departLane="2" type="mot_aggr2" probability="0.002443477293358015" route="route_E1_A2" begin="0" end="600" > </flow>
<flow id="flow_0_mot_aggr2_route_E1_A2_lane3" departLane="3" type="mot_aggr2" probability="0.002443477293358015" route="route_E1_A2" begin="0" end="600" > </flow>
<flow id="flow_0_mot_aggr3_route_E1_A2_lane0" departLane="0" type="mot_aggr3" probability="0.002443477293358015" route="route_E1_A2" begin="0" end="600" > </flow>
<flow id="flow_0_mot_aggr3_route_E1_A2_lane1" departLane="1" type="mot_aggr3" probability="0.002443477293358015" route="route_E1_A2" begin="0" end="600" > </flow>
<flow id="flow_0_mot_aggr3_route_E1_A2_lane2" departLane="2" type="mot_aggr3" probability="0.002443477293358015" route="route_E1_A2" begin="0" end="600" > </flow>
<flow id="flow_0_mot_aggr3_route_E1_A2_lane3" departLane="3" type="mot_aggr3" probability="0.002443477293358015" route="route_E1_A2" begin="0" end="600" > </flow>
<flow id="flow_0_mot_aggr4_route_E1_A2_lane0" departLane="0" type="mot_aggr4" probability="0.002443477293358015" route="route_E1_A2" begin="0" end="600" > </flow>
<flow id="flow_0_mot_aggr4_route_E1_A2_lane1" departLane="1" type="mot_aggr4" probability="0.002443477293358015" route="route_E1_A2" begin="0" end="600" > </flow>
<flow id="flow_0_mot_aggr4_route_E1_A2_lane2" departLane="2" type="mot_aggr4" probability="0.002443477293358015" route="route_E1_A2" begin="0" end="600" > </flow>
<flow id="flow_0_mot_aggr4_route_E1_A2_lane3" departLane="3" type="mot_aggr4" probability="0.002443477293358015" route="route_E1_A2" begin="0" end="600" > </flow>
<flow id="flow_0_mot_aggr5_route_E1_A2_lane0" departLane="0" type="mot_aggr5" probability="0.002443477293358015" route="route_E1_A2" begin="0" end="600" > </flow>
<flow id="flow_0_mot_aggr5_route_E1_A2_lane1" departLane="1" type="mot_aggr5" probability="0.002443477293358015" route="route_E1_A2" begin="0" end="600" > </flow>
<flow id="flow_0_mot_aggr5_route_E1_A2_lane2" departLane="2" type="mot_aggr5" probability="0.002443477293358015" route="route_E1_A2" begin="0" end="600" > </flow>
<flow id="flow_0_mot_aggr5_route_E1_A2_lane3" departLane="3" type="mot_aggr5" probability="0.002443477293358015" route="route_E1_A2" begin="0" end="600" > </flow>
<flow id="flow_0_car_aggr1_route_E1_A3_lane0" departLane="0" type="car_aggr1" probability="0.017770613505746578" route="route_E1_A3" begin="0" end="600" > </flow>
<flow id="flow_0_car_aggr1_route_E1_A3_lane1" departLane="1" type="car_aggr1" probability="0.017770613505746578" route="route_E1_A3" begin="0" end="600" > </flow>
<flow id="flow_0_car_aggr1_route_E1_A3_lane2" departLane="2" type="car_aggr1" probability="0.017770613505746578" route="route_E1_A3" begin="0" end="600" > </flow>
<flow id="flow_0_car_aggr1_route_E1_A3_lane3" departLane="3" type="car_aggr1" probability="0.017770613505746578" route="route_E1_A3" begin="0" end="600" > </flow>
<flow id="flow_0_car_aggr2_route_E1_A3_lane0" departLane="0" type="car_aggr2" probability="0.017770613505746578" route="route_E1_A3" begin="0" end="600" > </flow>
<flow id="flow_0_car_aggr2_route_E1_A3_lane1" departLane="1" type="car_aggr2" probability="0.017770613505746578" route="route_E1_A3" begin="0" end="600" > </flow>
<flow id="flow_0_car_aggr2_route_E1_A3_lane2" departLane="2" type="car_aggr2" probability="0.017770613505746578" route="route_E1_A3" begin="0" end="600" > </flow>
<flow id="flow_0_car_aggr2_route_E1_A3_lane3" departLane="3" type="car_aggr2" probability="0.017770613505746578" route="route_E1_A3" begin="0" end="600" > </flow>
<flow id="flow_0_car_aggr3_route_E1_A3_lane0" departLane="0" type="car_aggr3" probability="0.017770613505746578" route="route_E1_A3" begin="0" end="600" > </flow>
<flow id="flow_0_car_aggr3_route_E1_A3_lane1" departLane="1" type="car_aggr3" probability="0.017770613505746578" route="route_E1_A3" begin="0" end="600" > </flow>
<flow id="flow_0_car_aggr3_route_E1_A3_lane2" departLane="2" type="car_aggr3" probability="0.017770613505746578" route="route_E1_A3" begin="0" end="600" > </flow>
<flow id="flow_0_car_aggr3_route_E1_A3_lane3" departLane="3" type="car_aggr3" probability="0.017770613505746578" route="route_E1_A3" begin="0" end="600" > </flow>
<flow id="flow_0_car_aggr4_route_E1_A3_lane0" departLane="0" type="car_aggr4" probability="0.017770613505746578" route="route_E1_A3" begin="0" end="600" > </flow>
<flow id="flow_0_car_aggr4_route_E1_A3_lane1" departLane="1" type="car_aggr4" probability="0.017770613505746578" route="route_E1_A3" begin="0" end="600" > </flow>
<flow id="flow_0_car_aggr4_route_E1_A3_lane2" departLane="2" type="car_aggr4" probability="0.017770613505746578" route="route_E1_A3" begin="0" end="600" > </flow>
<flow id="flow_0_car_aggr4_route_E1_A3_lane3" departLane="3" type="car_aggr4" probability="0.017770613505746578" route="route_E1_A3" begin="0" end="600" > </flow>