<?xml version="1.0" encoding="UTF-8"?>

<!-- generated on 2025-06-03 09:47:43 by Eclipse SUMO netedit Version 1.19.0
<configuration xmlns:xsi="http://www.w3.org/2001/XMLSchema-instance" xsi:noNamespaceSchemaLocation="http://sumo.dlr.de/xsd/neteditConfiguration.xsd">

    <input>
        <sumo-net-file value="C:\Users\kriehl\Documents\GitHub\chronoceptive_its\data\traffic_model\barcelona\Network_2Sided.net.xml"/>
    </input>

    <output>
        <output-file value="C:\Users\kriehl\Documents\GitHub\chronoceptive_its\data\traffic_model\barcelona\Network_2Sided.net.xml"/>
        <output.street-names value="true"/>
    </output>

    <processing>
        <geometry.min-radius.fix.railways value="false"/>
        <geometry.max-grade.fix value="false"/>
        <offset.disable-normalization value="true"/>
        <lefthand value="0"/>
    </processing>

    <junctions>
        <no-turnarounds value="true"/>
        <junctions.corner-detail value="5"/>
        <junctions.limit-turn-speed value="5.50"/>
        <rectangular-lane-cut value="0"/>
    </junctions>

    <pedestrian>
        <walkingareas value="0"/>
    </pedestrian>

</configuration>
-->

<net version="1.16" junctionCornerDetail="5" limitTurnSpeed="5.50" xmlns:xsi="http://www.w3.org/2001/XMLSchema-instance" xsi:noNamespaceSchemaLocation="http://sumo.dlr.de/xsd/net_file.xsd">

    <location netOffset="-410839.68,-4570200.97" convBoundary="17205.01,15339.58,21837.79,18824.91" origBoundary="-0.645202,35.709443,11.782536,44.407854" projParameter="+proj=utm +zone=31 +ellps=WGS84 +datum=WGS84 +units=m +no_defs"/>

    <type id="highway.primary_link" priority="7" numLanes="1" speed="22.22" oneway="0"/>
    <type id="highway.tertiary" priority="10" numLanes="1" speed="22.22" oneway="0"/>
    <type id="highway.trunk" priority="13" numLanes="2" speed="27.78" oneway="0"/>
    <type id="highway.trunk_link" priority="8" numLanes="1" speed="22.22" oneway="0"/>

    <edge id=":1162558801_0" function="internal">
        <lane id=":1162558801_0_0" index="0" speed="18.05" length="32.22" shape="20871.68,18451.80 20861.06,18451.05 20851.87,18451.02 20844.53,18451.27 20839.49,18451.38"/>
    </edge>
    <edge id=":1162558801_1" function="internal">
        <lane id=":1162558801_1_0" index="0" speed="22.22" length="32.31" shape="20871.68,18451.80 20839.59,18447.81"/>
        <lane id=":1162558801_1_1" index="1" speed="22.22" length="32.31" shape="20872.03,18448.62 20839.97,18444.63"/>
        <lane id=":1162558801_1_2" index="2" speed="22.22" length="32.31" shape="20872.38,18445.44 20840.35,18441.46"/>
    </edge>
    <edge id=":1230701452_0" function="internal">
        <lane id=":1230701452_0_0" index="0" speed="18.05" length="44.78" shape="18981.13,17718.45 18936.68,17713.02"/>
    </edge>
    <edge id=":1230701452_1" function="internal">
        <lane id=":1230701452_1_0" index="0" speed="22.22" length="44.74" shape="18981.13,17718.45 18937.25,17709.32"/>
        <lane id=":1230701452_1_1" index="1" speed="22.22" length="44.74" shape="18981.66,17715.29 18937.86,17706.18"/>
        <lane id=":1230701452_1_2" index="2" speed="22.22" length="44.74" shape="18982.19,17712.14 18938.47,17703.04"/>
    </edge>
    <edge id=":1291715885_0" function="internal">
        <lane id=":1291715885_0_0" index="0" speed="18.05" length="34.09" shape="18139.58,17426.44 18113.42,17404.58"/>
    </edge>
    <edge id=":1291715885_1" function="internal">
        <lane id=":1291715885_1_0" index="0" speed="22.22" length="34.29" shape="18141.82,17423.80 18113.42,17404.58"/>
        <lane id=":1291715885_1_1" index="1" speed="22.22" length="34.29" shape="18143.70,17421.21 18115.30,17401.99"/>
        <lane id=":1291715885_1_2" index="2" speed="22.22" length="34.29" shape="18145.58,17418.62 18117.18,17399.40"/>
    </edge>
    <edge id=":2456870302_0" function="internal">
        <lane id=":2456870302_0_0" index="0" speed="18.05" length="38.38" shape="19775.16,18034.82 19764.52,18030.24 19753.79,18026.67 19744.67,18024.11 19738.87,18022.54"/>
    </edge>
    <edge id=":2456870302_1" function="internal">
        <lane id=":2456870302_1_0" index="0" speed="22.22" length="38.41" shape="19775.16,18034.82 19740.20,18019.04"/>
        <lane id=":2456870302_1_1" index="1" speed="22.22" length="38.41" shape="19776.61,18031.96 19741.60,18016.16"/>
        <lane id=":2456870302_1_2" index="2" speed="22.22" length="38.41" shape="19778.06,18029.11 19743.00,18013.28"/>
    </edge>
    <edge id=":2456874969_0" function="internal">
        <lane id=":2456874969_0_0" index="0" speed="13.89" length="18.68" shape="20379.30,18356.46 20375.74,18354.03 20371.83,18350.89 20367.93,18347.71 20364.43,18345.18"/>
    </edge>
    <edge id=":2456874969_1" function="internal">
        <lane id=":2456874969_1_0" index="0" speed="13.89" length="18.04" shape="20380.58,18353.08 20376.59,18351.78 20372.26,18349.73 20368.06,18347.38 20364.43,18345.18"/>
    </edge>
    <edge id=":2456927924_0" function="internal">
        <lane id=":2456927924_0_0" index="0" speed="18.05" length="45.00" shape="19289.78,17807.64 19283.75,17803.98 19273.63,17798.02 19261.65,17791.60 19250.08,17786.59"/>
    </edge>
    <edge id=":2456927924_1" function="internal">
        <lane id=":2456927924_1_0" index="0" speed="22.22" length="45.22" shape="19291.44,17804.33 19250.08,17786.59"/>
        <lane id=":2456927924_1_1" index="1" speed="22.22" length="45.22" shape="19292.69,17801.39 19251.13,17783.57"/>
        <lane id=":2456927924_1_2" index="2" speed="22.22" length="45.22" shape="19293.94,17798.44 19252.18,17780.55"/>
    </edge>
    <edge id=":255415155_0" function="internal">
        <lane id=":255415155_0_0" index="0" speed="22.22" length="0.33" shape="21307.35,18503.49 21306.91,18503.49"/>
        <lane id=":255415155_0_1" index="1" speed="22.22" length="0.33" shape="21307.28,18500.29 21306.94,18500.29"/>
        <lane id=":255415155_0_2" index="2" speed="22.22" length="0.33" shape="21307.20,18497.09 21306.97,18497.09"/>
    </edge>
    <edge id=":29380492#0-AddedOnRampNode_0" function="internal">
        <lane id=":29380492#0-AddedOnRampNode_0_0" index="0" speed="22.22" length="0.29" shape="20107.31,18200.27 20107.22,18200.22 20107.17,18200.18 20107.11,18200.14 20107.02,18200.08"/>
        <lane id=":29380492#0-AddedOnRampNode_0_1" index="1" speed="22.22" length="0.29" shape="20108.68,18197.38 20108.60,18197.34 20108.56,18197.30 20108.52,18197.26 20108.44,18197.22"/>
        <lane id=":29380492#0-AddedOnRampNode_0_2" index="2" speed="22.22" length="0.29" shape="20110.04,18194.49 20109.99,18194.45 20109.95,18194.42 20109.92,18194.39 20109.87,18194.35"/>
    </edge>
    <edge id=":2983305231_0" function="internal">
        <lane id=":2983305231_0_0" index="0" speed="13.89" length="54.49" shape="19382.54,17883.84 19374.41,17874.97 19362.53,17862.68 19351.12,17851.25 19344.41,17844.94"/>
    </edge>
    <edge id=":2983305231_1" function="internal">
        <lane id=":2983305231_1_0" index="0" speed="13.89" length="54.33" shape="19385.43,17880.49 19374.18,17872.05 19361.60,17860.92 19350.68,17850.69 19344.41,17844.94"/>
    </edge>
    <edge id=":2983345299_0" function="internal">
        <lane id=":2983345299_0_0" index="0" speed="13.89" length="8.09" shape="20664.15,18425.79 20661.77,18425.73 20660.13,18426.01 20658.49,18426.25 20656.13,18426.08"/>
        <lane id=":2983345299_0_1" index="1" speed="13.89" length="8.09" shape="20664.15,18425.79 20661.86,18425.24 20660.39,18424.43 20658.94,18423.58 20656.65,18422.92"/>
    </edge>
    <edge id=":30014458#1-AddedOffRampNode_0" function="internal">
        <lane id=":30014458#1-AddedOffRampNode_0_0" index="0" speed="22.22" length="0.55" shape="19114.20,17745.15 19113.83,17745.07"/>
        <lane id=":30014458#1-AddedOffRampNode_0_1" index="1" speed="22.22" length="0.55" shape="19115.03,17742.06 19114.50,17741.94"/>
        <lane id=":30014458#1-AddedOffRampNode_0_2" index="2" speed="22.22" length="0.55" shape="19115.86,17738.97 19115.17,17738.81"/>
    </edge>
    <edge id=":30014458#1-AddedOnRampNode_0" function="internal">
        <lane id=":30014458#1-AddedOnRampNode_0_0" index="0" speed="22.22" length="0.82" shape="19187.29,17764.79 19186.72,17764.63"/>
        <lane id=":30014458#1-AddedOnRampNode_0_1" index="1" speed="22.22" length="0.82" shape="19188.34,17761.77 19187.55,17761.54"/>
        <lane id=":30014458#1-AddedOnRampNode_0_2" index="2" speed="22.22" length="0.82" shape="19189.39,17758.74 19188.38,17758.45"/>
    </edge>
    <edge id=":317922760_0" function="internal">
        <lane id=":317922760_0_0" index="0" speed="18.05" length="17.46" shape="21779.01,18545.48 21775.22,18541.24 21772.03,18538.19 21769.12,18535.85 21766.18,18533.74"/>
    </edge>
    <edge id=":317922760_1" function="internal">
        <lane id=":317922760_1_0" index="0" speed="22.22" length="18.36" shape="21781.46,18543.43 21777.97,18539.40 21775.38,18536.82 21772.53,18534.50 21768.30,18531.24"/>
        <lane id=":317922760_1_1" index="1" speed="22.22" length="18.36" shape="21783.92,18541.37 21780.36,18537.26 21777.72,18534.62 21774.83,18532.24 21770.52,18528.91"/>
        <lane id=":317922760_1_2" index="2" speed="22.22" length="18.36" shape="21786.37,18539.32 21782.75,18535.12 21780.07,18532.42 21777.13,18529.98 21772.74,18526.59"/>
    </edge>
    <edge id=":317926494_0" function="internal">
        <lane id=":317926494_0_0" index="0" speed="22.22" length="0.40" shape="21801.66,18693.00 21801.68,18692.79 21801.68,18692.65 21801.70,18692.51 21801.74,18692.30"/>
        <lane id=":317926494_0_1" index="1" speed="22.22" length="0.40" shape="21804.85,18693.29 21804.86,18693.15 21804.87,18693.04 21804.88,18692.94 21804.90,18692.79"/>
        <lane id=":317926494_0_2" index="2" speed="22.22" length="0.40" shape="21808.04,18693.59 21808.04,18693.50 21808.05,18693.44 21808.05,18693.37 21808.07,18693.29"/>
        <lane id=":317926494_0_3" index="3" speed="22.22" length="0.40" shape="21811.22,18693.88 21811.23,18693.85 21811.23,18693.83 21811.23,18693.81 21811.23,18693.78"/>
    </edge>
    <edge id=":323158443_0" function="internal">
        <lane id=":323158443_0_0" index="0" speed="18.05" length="33.11" shape="17483.76,16077.24 17482.52,16072.20 17480.83,16064.72 17478.24,16055.59 17474.29,16045.58"/>
    </edge>
    <edge id=":323158443_1" function="internal">
        <lane id=":323158443_1_0" index="0" speed="22.22" length="33.26" shape="17487.08,16076.12 17474.29,16045.58"/>
        <lane id=":323158443_1_1" index="1" speed="22.22" length="33.26" shape="17490.05,16074.93 17477.20,16044.26"/>
        <lane id=":323158443_1_2" index="2" speed="22.22" length="33.26" shape="17493.02,16073.74 17480.11,16042.93"/>
    </edge>
    <edge id=":323159496_0" function="internal">
        <lane id=":323159496_0_0" index="0" speed="22.22" length="0.32" shape="20662.89,18419.70 20662.48,18419.62"/>
        <lane id=":323159496_0_1" index="1" speed="22.22" length="0.32" shape="20663.44,18416.55 20663.12,18416.49"/>
        <lane id=":323159496_0_2" index="2" speed="22.22" length="0.32" shape="20663.99,18413.39 20663.77,18413.35"/>
    </edge>
    <edge id=":34210903#1-AddedOnRampNode_0" function="internal">
        <lane id=":34210903#1-AddedOnRampNode_0_0" index="0" speed="22.22" length="0.39" shape="18032.75,17341.42 18032.41,17341.03"/>
        <lane id=":34210903#1-AddedOnRampNode_0_1" index="1" speed="22.22" length="0.39" shape="18034.99,17339.14 18034.91,17339.05 18034.86,17338.99 18034.81,17338.93 18034.74,17338.84"/>
        <lane id=":34210903#1-AddedOnRampNode_0_2" index="2" speed="22.22" length="0.39" shape="18037.23,17336.85 18037.18,17336.79 18037.15,17336.75 18037.12,17336.70 18037.07,17336.64"/>
    </edge>
    <edge id=":34210903#2-AddedOnRampNode_0" function="internal">
        <lane id=":34210903#2-AddedOnRampNode_0_0" index="0" speed="22.22" length="0.28" shape="17799.15,16950.22 17799.04,16949.89"/>
        <lane id=":34210903#2-AddedOnRampNode_0_1" index="1" speed="22.22" length="0.28" shape="17802.16,16949.11 17802.06,16948.85"/>
        <lane id=":34210903#2-AddedOnRampNode_0_2" index="2" speed="22.22" length="0.28" shape="17805.16,16948.01 17805.09,16947.80"/>
    </edge>
    <edge id=":34211542-AddedOnRampNode_0" function="internal">
        <lane id=":34211542-AddedOnRampNode_0_0" index="0" speed="22.22" length="28.52" shape="17436.63,15963.88 17432.96,15956.12 17430.23,15950.88 17427.82,15945.53 17425.11,15937.41"/>
        <lane id=":34211542-AddedOnRampNode_0_1" index="1" speed="22.22" length="28.52" shape="17439.56,15962.60 17435.94,15954.94 17433.24,15949.78 17430.86,15944.51 17428.18,15936.51"/>
        <lane id=":34211542-AddedOnRampNode_0_2" index="2" speed="22.22" length="28.52" shape="17442.49,15961.32 17438.92,15953.77 17436.25,15948.68 17433.89,15943.49 17431.25,15935.60"/>
    </edge>
    <edge id=":376746258_0" function="internal">
        <lane id=":376746258_0_0" index="0" speed="18.05" length="29.22" shape="17757.25,16829.30 17753.42,16820.08 17749.52,16812.88 17746.18,16807.40 17744.02,16803.31"/>
    </edge>
    <edge id=":376746258_1" function="internal">
        <lane id=":376746258_1_0" index="0" speed="22.22" length="29.34" shape="17757.25,16829.30 17747.59,16801.60"/>
        <lane id=":376746258_1_1" index="1" speed="22.22" length="29.34" shape="17760.27,16828.25 17750.61,16800.55"/>
        <lane id=":376746258_1_2" index="2" speed="22.22" length="29.34" shape="17763.29,16827.20 17753.63,16799.49"/>
    </edge>
    <edge id=":376751686_0" function="internal">
        <lane id=":376751686_0_0" index="0" speed="18.05" length="40.18" shape="17835.00,17050.28 17822.18,17012.21"/>
    </edge>
    <edge id=":376751686_1" function="internal">
        <lane id=":376751686_1_0" index="0" speed="22.22" length="40.19" shape="17838.54,17049.11 17822.18,17012.21"/>
        <lane id=":376751686_1_1" index="1" speed="22.22" length="40.19" shape="17841.46,17047.80 17825.17,17011.06"/>
        <lane id=":376751686_1_2" index="2" speed="22.22" length="40.19" shape="17844.39,17046.49 17828.16,17009.91"/>
    </edge>
    <edge id=":392363608_0" function="internal">
        <lane id=":392363608_0_0" index="0" speed="18.05" length="0.17" shape="21567.69,18509.27 21567.59,18509.14"/>
        <lane id=":392363608_0_1" index="1" speed="18.05" length="0.17" shape="21567.65,18506.07 21567.53,18505.94"/>
    </edge>
    <edge id=":392363611_0" function="internal">
        <lane id=":392363611_0_0" index="0" speed="13.89" length="8.18" shape="21653.49,18507.06 21651.10,18507.36 21649.51,18507.94 21647.91,18508.49 21645.52,18508.74"/>
        <lane id=":392363611_0_1" index="1" speed="13.89" length="8.18" shape="21653.49,18507.06 21651.11,18506.86 21649.51,18506.34 21647.92,18505.79 21645.53,18505.54"/>
    </edge>
    <edge id=":4127392690_0" function="internal">
        <lane id=":4127392690_0_0" index="0" speed="13.89" length="7.40" shape="17858.54,17113.81 17857.50,17111.87 17856.80,17110.54 17856.17,17109.17 17855.33,17107.15"/>
    </edge>
    <edge id=":415716575_0" function="internal">
        <lane id=":415716575_0_0" index="0" speed="13.89" length="1.37" shape="19544.64,17940.87 19543.39,17940.31"/>
    </edge>
    <edge id=":604001411_0" function="internal">
        <lane id=":604001411_0_0" index="0" speed="18.05" length="44.34" shape="20196.36,18246.87 20190.52,18243.14 20180.79,18237.00 20169.31,18230.16 20158.22,18224.30"/>
    </edge>
    <edge id=":604001411_1" function="internal">
        <lane id=":604001411_1_0" index="0" speed="22.22" length="44.33" shape="20197.79,18244.08 20158.22,18224.30"/>
        <lane id=":604001411_1_1" index="1" speed="22.22" length="44.33" shape="20199.24,18241.23 20159.59,18221.41"/>
        <lane id=":604001411_1_2" index="2" speed="22.22" length="44.33" shape="20200.69,18238.38 20160.96,18218.52"/>
    </edge>
    <edge id=":J11_0" function="internal">
        <lane id=":J11_0_0" index="0" speed="22.22" length="0.29" shape="20960.66,18461.64 20960.41,18461.61"/>
        <lane id=":J11_0_1" index="1" speed="22.22" length="0.29" shape="20961.05,18458.47 20960.77,18458.43"/>
        <lane id=":J11_0_2" index="2" speed="22.22" length="0.29" shape="20961.45,18455.29 20961.12,18455.25"/>
    </edge>
    <edge id=":J12_0" function="internal">
        <lane id=":J12_0_0" index="0" speed="22.22" length="0.27" shape="20796.51,18442.07 20796.17,18442.02"/>
        <lane id=":J12_0_1" index="1" speed="22.22" length="0.27" shape="20796.95,18438.90 20796.69,18438.86"/>
        <lane id=":J12_0_2" index="2" speed="22.22" length="0.27" shape="20797.39,18435.73 20797.21,18435.70"/>
    </edge>
    <edge id=":J14_0" function="internal">
        <lane id=":J14_0_0" index="0" speed="22.22" length="0.30" shape="20238.39,18264.40 20238.12,18264.27"/>
        <lane id=":J14_0_1" index="1" speed="22.22" length="0.30" shape="20239.76,18261.50 20239.48,18261.38"/>
        <lane id=":J14_0_2" index="2" speed="22.22" length="0.30" shape="20241.13,18258.61 20240.85,18258.48"/>
    </edge>
    <edge id=":J15_0" function="internal">
        <lane id=":J15_0_0" index="0" speed="22.22" length="0.30" shape="19844.78,18070.16 19844.51,18070.03"/>
        <lane id=":J15_0_1" index="1" speed="22.22" length="0.30" shape="19846.22,18067.31 19845.96,18067.17"/>
        <lane id=":J15_0_2" index="2" speed="22.22" length="0.30" shape="19847.67,18064.45 19847.41,18064.32"/>
    </edge>
    <edge id=":J16_0" function="internal">
        <lane id=":J16_0_0" index="0" speed="22.22" length="0.10" shape="19700.47,18000.61 19700.47,18000.61"/>
        <lane id=":J16_0_1" index="1" speed="22.22" length="0.10" shape="19701.82,17997.71 19701.82,17997.71"/>
        <lane id=":J16_0_2" index="2" speed="22.22" length="0.10" shape="19703.17,17994.81 19703.17,17994.81"/>
    </edge>
    <edge id=":J17_0" function="internal">
        <lane id=":J17_0_0" index="0" speed="22.22" length="0.29" shape="19368.35,17841.56 19368.01,17841.39"/>
        <lane id=":J17_0_1" index="1" speed="22.22" length="0.29" shape="19369.71,17838.66 19369.45,17838.53"/>
        <lane id=":J17_0_2" index="2" speed="22.22" length="0.29" shape="19371.07,17835.76 19370.89,17835.68"/>
    </edge>
    <edge id=":J18_0" function="internal">
        <lane id=":J18_0_0" index="0" speed="22.22" length="0.37" shape="19026.28,17726.39 19026.03,17726.34"/>
        <lane id=":J18_0_1" index="1" speed="22.22" length="0.37" shape="19026.95,17723.26 19026.59,17723.19"/>
        <lane id=":J18_0_2" index="2" speed="22.22" length="0.37" shape="19027.62,17720.13 19027.14,17720.04"/>
    </edge>
    <edge id=":J19_0" function="internal">
        <lane id=":J19_0_0" index="0" speed="22.22" length="0.10" shape="18874.97,17697.44 18874.97,17697.44"/>
        <lane id=":J19_0_1" index="1" speed="22.22" length="0.10" shape="18875.57,17694.30 18875.57,17694.30"/>
        <lane id=":J19_0_2" index="2" speed="22.22" length="0.10" shape="18876.17,17691.16 18876.17,17691.16"/>
    </edge>
    <edge id=":J2_0" function="internal">
        <lane id=":J2_0_0" index="0" speed="13.89" length="0.27" shape="17464.75,15978.87 17464.82,15979.05"/>
        <lane id=":J2_0_1" index="1" speed="13.89" length="0.27" shape="17461.79,15980.10 17461.90,15980.35"/>
        <lane id=":J2_0_2" index="2" speed="13.89" length="0.27" shape="17458.84,15981.33 17458.98,15981.66"/>
    </edge>
    <edge id=":J20_0" function="internal">
        <lane id=":J20_0_0" index="0" speed="22.22" length="0.10" shape="17909.24,17187.27 17909.24,17187.27"/>
        <lane id=":J20_0_1" index="1" speed="22.22" length="0.10" shape="17911.91,17185.50 17911.91,17185.50"/>
        <lane id=":J20_0_2" index="2" speed="22.22" length="0.10" shape="17914.58,17183.73 17914.58,17183.73"/>
    </edge>
    <edge id=":J21_0" function="internal">
        <lane id=":J21_0_0" index="0" speed="13.89" length="0.30" shape="18969.22,17697.04 18969.54,17697.10"/>
        <lane id=":J21_0_1" index="1" speed="13.89" length="0.30" shape="18968.61,17700.18 18968.90,17700.24"/>
        <lane id=":J21_0_2" index="2" speed="13.89" length="0.30" shape="18968.00,17703.32 18968.27,17703.38"/>
    </edge>
    <edge id=":J22_0" function="internal">
        <lane id=":J22_0_0" index="0" speed="13.89" length="0.42" shape="19283.06,17778.43 19283.70,17778.70"/>
        <lane id=":J22_0_1" index="1" speed="13.89" length="0.42" shape="19281.95,17781.43 19282.33,17781.59"/>
        <lane id=":J22_0_2" index="2" speed="13.89" length="0.42" shape="19280.84,17784.43 19280.96,17784.48"/>
    </edge>
    <edge id=":J23_0" function="internal">
        <lane id=":J23_0_0" index="0" speed="13.89" length="0.29" shape="19858.82,18056.50 19859.12,18056.65"/>
        <lane id=":J23_0_1" index="1" speed="13.89" length="0.29" shape="19857.41,18059.38 19857.67,18059.51"/>
        <lane id=":J23_0_2" index="2" speed="13.89" length="0.29" shape="19856.01,18062.25 19856.23,18062.36"/>
    </edge>
    <edge id=":J24_0" function="internal">
        <lane id=":J24_0_0" index="0" speed="13.89" length="0.30" shape="21303.60,18483.96 21303.82,18483.96"/>
        <lane id=":J24_0_1" index="1" speed="13.89" length="0.30" shape="21303.56,18487.16 21303.87,18487.16"/>
        <lane id=":J24_0_2" index="2" speed="13.89" length="0.30" shape="21303.52,18490.36 21303.92,18490.36"/>
    </edge>
    <edge id=":J25_0" function="internal">
        <lane id=":J25_0_0" index="0" speed="12.08" length="1.84" shape="21795.25,18520.78 21796.03,18521.24 21796.53,18521.61 21796.97,18522.06 21797.53,18522.77"/>
        <lane id=":J25_0_1" index="1" speed="9.45" length="1.84" shape="21793.64,18523.54 21794.10,18523.82 21794.41,18524.04 21794.67,18524.31 21795.01,18524.74"/>
        <lane id=":J25_0_2" index="2" speed="13.89" length="1.84" shape="21792.03,18526.31 21792.18,18526.40 21792.28,18526.47 21792.37,18526.56 21792.48,18526.71"/>
    </edge>
    <edge id=":J26_0" function="internal">
        <lane id=":J26_0_0" index="0" speed="22.22" length="0.10" shape="17776.50,16884.84 17776.50,16884.84"/>
        <lane id=":J26_0_1" index="1" speed="22.22" length="0.10" shape="17779.52,16883.79 17779.52,16883.79"/>
        <lane id=":J26_0_2" index="2" speed="22.22" length="0.10" shape="17782.54,16882.74 17782.54,16882.74"/>
    </edge>
    <edge id=":J27_0" function="internal">
        <lane id=":J27_0_0" index="0" speed="22.22" length="0.10" shape="17723.69,16733.45 17723.69,16733.45"/>
        <lane id=":J27_0_1" index="1" speed="22.22" length="0.10" shape="17726.71,16732.39 17726.71,16732.39"/>
        <lane id=":J27_0_2" index="2" speed="22.22" length="0.10" shape="17729.73,16731.33 17729.73,16731.33"/>
    </edge>
    <edge id=":J28_0" function="internal">
        <lane id=":J28_0_0" index="0" speed="22.22" length="0.10" shape="17518.26,16160.82 17518.25,16160.82"/>
        <lane id=":J28_0_1" index="1" speed="22.22" length="0.10" shape="17521.26,16159.72 17521.26,16159.72"/>
        <lane id=":J28_0_2" index="2" speed="22.22" length="0.10" shape="17524.26,16158.62 17524.27,16158.62"/>
    </edge>
    <edge id=":J29_0" function="internal">
        <lane id=":J29_0_0" index="0" speed="22.22" length="0.30" shape="17444.97,15983.16 17444.94,15983.05 17444.94,15982.97 17444.93,15982.89 17444.90,15982.79"/>
        <lane id=":J29_0_1" index="1" speed="22.22" length="0.30" shape="17447.87,15981.80 17447.85,15981.71 17447.85,15981.65 17447.86,15981.59 17447.83,15981.50"/>
        <lane id=":J29_0_2" index="2" speed="22.22" length="0.30" shape="17450.77,15980.44 17450.76,15980.22"/>
    </edge>
    <edge id=":J31_0" function="internal">
        <lane id=":J31_0_0" index="0" speed="6.51" length="9.03" shape="19098.40,18110.40 19098.05,18107.95 19097.00,18106.20 19095.25,18105.15 19092.80,18104.80"/>
        <lane id=":J31_0_1" index="1" speed="7.33" length="11.73" shape="19098.40,18110.40 19098.05,18106.55 19097.00,18103.80 19095.25,18102.15 19092.80,18101.60"/>
    </edge>
    <edge id=":J31_2" function="internal">
        <lane id=":J31_2_0" index="0" speed="13.89" length="20.80" shape="19098.40,18110.40 19098.40,18089.60"/>
    </edge>
    <edge id=":J31_3" function="internal">
        <lane id=":J31_3_0" index="0" speed="8.67" length="16.85" shape="19098.40,18110.40 19098.95,18105.15 19100.60,18101.40 19103.35,18099.15 19107.20,18098.40"/>
    </edge>
    <edge id=":J31_4" function="internal">
        <lane id=":J31_4_0" index="0" speed="6.51" length="9.03" shape="19101.60,18089.60 19101.95,18092.05 19103.00,18093.80 19104.75,18094.85 19107.20,18095.20"/>
    </edge>
    <edge id=":J31_5" function="internal">
        <lane id=":J31_5_0" index="0" speed="13.89" length="20.80" shape="19101.60,18089.60 19101.60,18110.40"/>
    </edge>
    <edge id=":J31_6" function="internal">
        <lane id=":J31_6_0" index="0" speed="8.67" length="16.85" shape="19101.60,18089.60 19101.05,18094.85 19099.40,18098.60 19096.65,18100.85 19092.80,18101.60"/>
    </edge>
    <edge id=":J31_7" function="internal">
        <lane id=":J31_7_0" index="0" speed="6.51" length="9.03" shape="19092.80,18095.20 19095.25,18094.85 19097.00,18093.80 19098.05,18092.05 19098.40,18089.60"/>
    </edge>
    <edge id=":J31_8" function="internal">
        <lane id=":J31_8_0" index="0" speed="13.89" length="14.40" shape="19092.80,18095.20 19107.20,18095.20"/>
        <lane id=":J31_8_1" index="1" speed="13.89" length="14.40" shape="19092.80,18098.40 19107.20,18098.40"/>
    </edge>
    <edge id=":J31_10" function="internal">
        <lane id=":J31_10_0" index="0" speed="8.67" length="16.85" shape="19092.80,18098.40 19096.65,18099.15 19099.40,18101.40 19101.05,18105.15 19101.60,18110.40"/>
    </edge>
    <edge id=":J32_0" function="internal">
        <lane id=":J32_0_0" index="0" speed="13.89" length="21.15" shape="19398.40,18110.40 19397.90,18104.18 19396.79,18099.99 19395.68,18095.80 19395.15,18089.58"/>
    </edge>
    <edge id=":J32_1" function="internal">
        <lane id=":J32_1_0" index="0" speed="8.70" length="16.90" shape="19407.20,18101.60 19403.35,18100.85 19400.59,18098.59 19398.93,18094.83 19398.35,18089.56"/>
    </edge>
    <edge id=":J32_2" function="internal">
        <lane id=":J32_2_0" index="0" speed="6.50" length="9.03" shape="19386.37,18095.20 19388.82,18094.85 19390.57,18093.80 19391.61,18092.05 19391.95,18089.59"/>
    </edge>
    <edge id=":J32_3" function="internal">
        <lane id=":J32_3_0" index="0" speed="13.89" length="20.83" shape="19386.37,18098.40 19407.20,18098.40"/>
    </edge>
    <edge id=":J38_0" function="internal">
        <lane id=":J38_0_0" index="0" speed="6.51" length="9.03" shape="19275.49,18095.20 19277.94,18094.85 19279.69,18093.80 19280.74,18092.05 19281.09,18089.60"/>
        <lane id=":J38_0_1" index="1" speed="7.33" length="11.72" shape="19275.49,18095.20 19279.34,18094.85 19282.09,18093.80 19283.74,18092.05 19284.29,18089.60"/>
    </edge>
    <edge id=":J38_2" function="internal">
        <lane id=":J38_2_0" index="0" speed="13.89" length="14.39" shape="19275.49,18095.20 19289.88,18095.20"/>
        <lane id=":J38_2_1" index="1" speed="13.89" length="14.39" shape="19275.49,18098.40 19289.88,18098.40"/>
    </edge>
    <edge id=":J4_0" function="internal">
        <lane id=":J4_0_0" index="0" speed="13.89" length="0.17" shape="17520.19,16106.63 17520.29,16106.90"/>
        <lane id=":J4_0_1" index="1" speed="13.89" length="0.17" shape="17517.22,16107.83 17517.28,16107.99"/>
        <lane id=":J4_0_2" index="2" speed="13.89" length="0.17" shape="17514.25,16109.03 17514.27,16109.08"/>
    </edge>
    <edge id=":J40_0" function="internal">
        <lane id=":J40_0_0" index="0" speed="6.51" length="9.03" shape="20098.40,18610.40 20098.05,18607.95 20097.00,18606.20 20095.25,18605.15 20092.80,18604.80"/>
        <lane id=":J40_0_1" index="1" speed="7.33" length="11.73" shape="20098.40,18610.40 20098.05,18606.55 20097.00,18603.80 20095.25,18602.15 20092.80,18601.60"/>
    </edge>
    <edge id=":J40_2" function="internal">
        <lane id=":J40_2_0" index="0" speed="13.89" length="20.80" shape="20098.40,18610.40 20098.40,18589.60"/>
    </edge>
    <edge id=":J40_3" function="internal">
        <lane id=":J40_3_0" index="0" speed="8.67" length="16.85" shape="20098.40,18610.40 20098.95,18605.15 20100.60,18601.40 20103.35,18599.15 20107.20,18598.40"/>
    </edge>
    <edge id=":J40_4" function="internal">
        <lane id=":J40_4_0" index="0" speed="6.51" length="9.03" shape="20107.20,18604.80 20104.75,18605.15 20103.00,18606.20 20101.95,18607.95 20101.60,18610.40"/>
    </edge>
    <edge id=":J40_5" function="internal">
        <lane id=":J40_5_0" index="0" speed="13.89" length="14.40" shape="20107.20,18601.60 20092.80,18601.60"/>
    </edge>
    <edge id=":J40_6" function="internal">
        <lane id=":J40_6_0" index="0" speed="8.67" length="3.71" shape="20107.20,18601.60 20103.56,18600.89"/>
    </edge>
    <edge id=":J40_14" function="internal">
        <lane id=":J40_14_0" index="0" speed="8.67" length="13.14" shape="20103.56,18600.89 20103.35,18600.85 20100.60,18598.60 20098.95,18594.85 20098.40,18589.60"/>
    </edge>
    <edge id=":J40_7" function="internal">
        <lane id=":J40_7_0" index="0" speed="6.51" length="9.03" shape="20101.60,18589.60 20101.95,18592.05 20103.00,18593.80 20104.75,18594.85 20107.20,18595.20"/>
        <lane id=":J40_7_1" index="1" speed="7.33" length="11.73" shape="20101.60,18589.60 20101.95,18593.45 20103.00,18596.20 20104.75,18597.85 20107.20,18598.40"/>
    </edge>
    <edge id=":J40_9" function="internal">
        <lane id=":J40_9_0" index="0" speed="13.89" length="20.80" shape="20101.60,18589.60 20101.60,18610.40"/>
    </edge>
    <edge id=":J40_10" function="internal">
        <lane id=":J40_10_0" index="0" speed="8.67" length="16.85" shape="20101.60,18589.60 20101.05,18594.85 20099.40,18598.60 20096.65,18600.85 20092.80,18601.60"/>
    </edge>
    <edge id=":J40_11" function="internal">