<?xml version="1.0" encoding="UTF-8"?>

<!-- generated on 2025-02-08 22:52:51 by Eclipse SUMO netedit Version 1.21.0
<neteditConfiguration xmlns:xsi="http://www.w3.org/2001/XMLSchema-instance" xsi:noNamespaceSchemaLocation="http://sumo.dlr.de/xsd/neteditConfiguration.xsd">

    <input>
        <additional-files value="C:\Users\Zhan\Desktop\Yangle Zhan\Documents\GitHub\thesis_2024_eth_yangle_zhan\models\17_01_2025_RondaToyModel\Sensors.add.xml"/>
        <sumo-net-file value="C:\Users\Zhan\Desktop\Yangle Zhan\Documents\GitHub\thesis_2024_eth_yangle_zhan\models\17_01_2025_RondaToyModel\Network.net.xml"/>
    </input>

    <output>
        <output-file value="C:\Users\Zhan\Desktop\Yangle Zhan\Documents\GitHub\thesis_2024_eth_yangle_zhan\models\17_01_2025_RondaToyModel\Network.net.xml"/>
        <output.street-names value="true"/>
    </output>

    <processing>
        <geometry.min-radius.fix.railways value="false"/>
        <geometry.max-grade.fix value="false"/>
        <offset.disable-normalization value="true"/>
        <lefthand value="0"/>
    </processing>

    <junctions>
        <no-turnarounds value="true"/>
        <junctions.corner-detail value="5"/>
        <junctions.limit-turn-speed value="5.50"/>
        <rectangular-lane-cut value="0"/>
    </junctions>

    <pedestrian>
        <walkingareas value="0"/>
    </pedestrian>

</neteditConfiguration>
-->

<net version="1.20" junctionCornerDetail="5" limitTurnSpeed="5.50" xmlns:xsi="http://www.w3.org/2001/XMLSchema-instance" xsi:noNamespaceSchemaLocation="http://sumo.dlr.de/xsd/net_file.xsd">

    <location netOffset="-410839.68,-4570200.97" convBoundary="12830.86,9383.45,21819.33,18824.91" origBoundary="-0.645202,35.709443,11.782536,44.407854" projParameter="+proj=utm +zone=31 +ellps=WGS84 +datum=WGS84 +units=m +no_defs"/>

    <type id="highway.primary_link" priority="7" numLanes="1" speed="22.22"   oneway="0"/>
    <type id="highway.tertiary" priority="10" numLanes="1" speed="22.22"   oneway="0"/>
    <type id="highway.trunk" priority="13" numLanes="2" speed="27.78"   oneway="0"/>
    <type id="highway.trunk_link" priority="8" numLanes="1" speed="22.22"   oneway="0"/>

    <edge id=":1162558801_0" function="internal">
        <lane id=":1162558801_0_0" index="0"   speed="18.05" length="32.22" shape="20871.68,18451.80 20861.06,18451.05 20851.87,18451.02 20844.53,18451.27 20839.49,18451.38"/>
    </edge>
    <edge id=":1162558801_1" function="internal">
        <lane id=":1162558801_1_0" index="0"   speed="22.22" length="32.31" shape="20871.68,18451.80 20839.59,18447.81"/>
        <lane id=":1162558801_1_1" index="1"   speed="22.22" length="32.31" shape="20872.03,18448.62 20839.97,18444.63"/>
        <lane id=":1162558801_1_2" index="2"   speed="22.22" length="32.31" shape="20872.38,18445.44 20840.35,18441.46"/>
    </edge>
    <edge id=":1230701452_0" function="internal">
        <lane id=":1230701452_0_0" index="0"   speed="18.05" length="44.78" shape="18981.13,17718.45 18936.68,17713.02"/>
    </edge>
    <edge id=":1230701452_1" function="internal">
        <lane id=":1230701452_1_0" index="0"   speed="22.22" length="44.74" shape="18981.13,17718.45 18937.25,17709.32"/>
        <lane id=":1230701452_1_1" index="1"   speed="22.22" length="44.74" shape="18981.66,17715.29 18937.86,17706.18"/>
        <lane id=":1230701452_1_2" index="2"   speed="22.22" length="44.74" shape="18982.19,17712.14 18938.47,17703.04"/>
    </edge>
    <edge id=":1291715885_0" function="internal">
        <lane id=":1291715885_0_0" index="0"   speed="18.05" length="34.09" shape="18139.58,17426.44 18113.42,17404.58"/>
    </edge>
    <edge id=":1291715885_1" function="internal">
        <lane id=":1291715885_1_0" index="0"   speed="22.22" length="34.29" shape="18141.82,17423.80 18113.42,17404.58"/>
        <lane id=":1291715885_1_1" index="1"   speed="22.22" length="34.29" shape="18143.70,17421.21 18115.30,17401.99"/>
        <lane id=":1291715885_1_2" index="2"   speed="22.22" length="34.29" shape="18145.58,17418.62 18117.18,17399.40"/>
    </edge>
    <edge id=":2456870302_0" function="internal">
        <lane id=":2456870302_0_0" index="0"   speed="18.05" length="38.38" shape="19775.16,18034.82 19764.52,18030.24 19753.79,18026.67 19744.67,18024.11 19738.87,18022.54"/>
    </edge>
    <edge id=":2456870302_1" function="internal">
        <lane id=":2456870302_1_0" index="0"   speed="22.22" length="38.41" shape="19775.16,18034.82 19740.20,18019.04"/>
        <lane id=":2456870302_1_1" index="1"   speed="22.22" length="38.41" shape="19776.61,18031.96 19741.60,18016.16"/>
        <lane id=":2456870302_1_2" index="2"   speed="22.22" length="38.41" shape="19778.06,18029.11 19743.00,18013.28"/>
    </edge>
    <edge id=":2456927924_0" function="internal">
        <lane id=":2456927924_0_0" index="0"   speed="18.05" length="45.00" shape="19289.78,17807.64 19283.75,17803.98 19273.63,17798.02 19261.65,17791.60 19250.08,17786.59"/>
    </edge>
    <edge id=":2456927924_1" function="internal">
        <lane id=":2456927924_1_0" index="0"   speed="22.22" length="45.22" shape="19291.44,17804.33 19250.08,17786.59"/>
        <lane id=":2456927924_1_1" index="1"   speed="22.22" length="45.22" shape="19292.69,17801.39 19251.13,17783.57"/>
        <lane id=":2456927924_1_2" index="2"   speed="22.22" length="45.22" shape="19293.94,17798.44 19252.18,17780.55"/>
    </edge>
    <edge id=":255415155_0" function="internal">
        <lane id=":255415155_0_0" index="0"   speed="22.22" length="0.33" shape="21307.35,18503.49 21306.91,18503.49"/>
        <lane id=":255415155_0_1" index="1"   speed="22.22" length="0.33" shape="21307.28,18500.29 21306.94,18500.29"/>
        <lane id=":255415155_0_2" index="2"   speed="22.22" length="0.33" shape="21307.20,18497.09 21306.97,18497.09"/>
    </edge>
    <edge id=":29380492#0-AddedOnRampNode_0" function="internal">
        <lane id=":29380492#0-AddedOnRampNode_0_0" index="0"   speed="22.22" length="0.29" shape="20107.31,18200.27 20107.22,18200.22 20107.17,18200.18 20107.11,18200.14 20107.02,18200.08"/>
        <lane id=":29380492#0-AddedOnRampNode_0_1" index="1"   speed="22.22" length="0.29" shape="20108.68,18197.38 20108.60,18197.34 20108.56,18197.30 20108.52,18197.26 20108.44,18197.22"/>
        <lane id=":29380492#0-AddedOnRampNode_0_2" index="2"   speed="22.22" length="0.29" shape="20110.04,18194.49 20109.99,18194.45 20109.95,18194.42 20109.92,18194.39 20109.87,18194.35"/>
    </edge>
    <edge id=":2983345299_0" function="internal">
        <lane id=":2983345299_0_0" index="0"   speed="13.89" length="8.09" shape="20664.15,18425.79 20661.77,18425.73 20660.13,18426.01 20658.49,18426.25 20656.13,18426.08"/>
        <lane id=":2983345299_0_1" index="1"   speed="13.89" length="8.09" shape="20664.15,18425.79 20661.86,18425.24 20660.39,18424.43 20658.94,18423.58 20656.65,18422.92"/>
    </edge>
    <edge id=":30014458#1-AddedOffRampNode_0" function="internal">
        <lane id=":30014458#1-AddedOffRampNode_0_0" index="0"   speed="22.22" length="0.55" shape="19114.20,17745.15 19113.83,17745.07"/>
        <lane id=":30014458#1-AddedOffRampNode_0_1" index="1"   speed="22.22" length="0.55" shape="19115.03,17742.06 19114.50,17741.94"/>
        <lane id=":30014458#1-AddedOffRampNode_0_2" index="2"   speed="22.22" length="0.55" shape="19115.86,17738.97 19115.17,17738.81"/>
    </edge>
    <edge id=":30014458#1-AddedOnRampNode_0" function="internal">
        <lane id=":30014458#1-AddedOnRampNode_0_0" index="0"   speed="22.22" length="0.82" shape="19187.29,17764.79 19186.72,17764.63"/>
        <lane id=":30014458#1-AddedOnRampNode_0_1" index="1"   speed="22.22" length="0.82" shape="19188.34,17761.77 19187.55,17761.54"/>
        <lane id=":30014458#1-AddedOnRampNode_0_2" index="2"   speed="22.22" length="0.82" shape="19189.39,17758.74 19188.38,17758.45"/>
    </edge>
    <edge id=":317922760_0" function="internal">
        <lane id=":317922760_0_0" index="0"   speed="18.05" length="17.46" shape="21779.01,18545.48 21775.22,18541.24 21772.03,18538.19 21769.12,18535.85 21766.18,18533.74"/>
    </edge>
    <edge id=":317922760_1" function="internal">
        <lane id=":317922760_1_0" index="0"   speed="22.22" length="18.36" shape="21781.46,18543.43 21777.97,18539.40 21775.38,18536.82 21772.53,18534.50 21768.30,18531.24"/>
        <lane id=":317922760_1_1" index="1"   speed="22.22" length="18.36" shape="21783.92,18541.37 21780.36,18537.26 21777.72,18534.62 21774.83,18532.24 21770.52,18528.91"/>
        <lane id=":317922760_1_2" index="2"   speed="22.22" length="18.36" shape="21786.37,18539.32 21782.75,18535.12 21780.07,18532.42 21777.13,18529.98 21772.74,18526.59"/>
    </edge>
    <edge id=":317926494_0" function="internal">
        <lane id=":317926494_0_0" index="0"   speed="22.22" length="0.40" shape="21801.66,18693.00 21801.68,18692.79 21801.68,18692.65 21801.70,18692.51 21801.74,18692.30"/>
        <lane id=":317926494_0_1" index="1"   speed="22.22" length="0.40" shape="21804.85,18693.29 21804.86,18693.15 21804.87,18693.04 21804.88,18692.94 21804.90,18692.79"/>
        <lane id=":317926494_0_2" index="2"   speed="22.22" length="0.40" shape="21808.04,18693.59 21808.04,18693.50 21808.05,18693.44 21808.05,18693.37 21808.07,18693.29"/>
        <lane id=":317926494_0_3" index="3"   speed="22.22" length="0.40" shape="21811.22,18693.88 21811.23,18693.85 21811.23,18693.83 21811.23,18693.81 21811.23,18693.78"/>
    </edge>
    <edge id=":323158443_0" function="internal">
        <lane id=":323158443_0_0" index="0"   speed="18.05" length="33.11" shape="17483.76,16077.24 17482.52,16072.20 17480.83,16064.72 17478.24,16055.59 17474.29,16045.58"/>
    </edge>
    <edge id=":323158443_1" function="internal">
        <lane id=":323158443_1_0" index="0"   speed="22.22" length="33.26" shape="17487.08,16076.12 17474.29,16045.58"/>
        <lane id=":323158443_1_1" index="1"   speed="22.22" length="33.26" shape="17490.05,16074.93 17477.20,16044.26"/>
        <lane id=":323158443_1_2" index="2"   speed="22.22" length="33.26" shape="17493.02,16073.74 17480.11,16042.93"/>
    </edge>
    <edge id=":323159496_0" function="internal">
        <lane id=":323159496_0_0" index="0"   speed="22.22" length="0.32" shape="20662.89,18419.70 20662.48,18419.62"/>
        <lane id=":323159496_0_1" index="1"   speed="22.22" length="0.32" shape="20663.44,18416.55 20663.12,18416.49"/>
        <lane id=":323159496_0_2" index="2"   speed="22.22" length="0.32" shape="20663.99,18413.39 20663.77,18413.35"/>
    </edge>
    <edge id=":34210903#1-AddedOnRampNode_0" function="internal">
        <lane id=":34210903#1-AddedOnRampNode_0_0" index="0"   speed="22.22" length="0.39" shape="18032.75,17341.42 18032.41,17341.03"/>
        <lane id=":34210903#1-AddedOnRampNode_0_1" index="1"   speed="22.22" length="0.39" shape="18034.99,17339.14 18034.91,17339.05 18034.86,17338.99 18034.81,17338.93 18034.74,17338.84"/>
        <lane id=":34210903#1-AddedOnRampNode_0_2" index="2"   speed="22.22" length="0.39" shape="18037.23,17336.85 18037.18,17336.79 18037.15,17336.75 18037.12,17336.70 18037.07,17336.64"/>
    </edge>
    <edge id=":34210903#2-AddedOnRampNode_0" function="internal">
        <lane id=":34210903#2-AddedOnRampNode_0_0" index="0"   speed="22.22" length="0.28" shape="17799.15,16950.22 17799.04,16949.89"/>
        <lane id=":34210903#2-AddedOnRampNode_0_1" index="1"   speed="22.22" length="0.28" shape="17802.16,16949.11 17802.06,16948.85"/>
        <lane id=":34210903#2-AddedOnRampNode_0_2" index="2"   speed="22.22" length="0.28" shape="17805.16,16948.01 17805.09,16947.80"/>
    </edge>
    <edge id=":34211542-AddedOnRampNode_0" function="internal">
        <lane id=":34211542-AddedOnRampNode_0_0" index="0"   speed="22.22" length="0.47" shape="17436.63,15963.88 17436.37,15963.23"/>
        <lane id=":34211542-AddedOnRampNode_0_1" index="1"   speed="22.22" length="0.47" shape="17439.56,15962.60 17439.38,15962.17"/>
        <lane id=":34211542-AddedOnRampNode_0_2" index="2"   speed="22.22" length="0.47" shape="17442.49,15961.32 17442.40,15961.10"/>
    </edge>
    <edge id=":376746258_0" function="internal">
        <lane id=":376746258_0_0" index="0"   speed="18.05" length="29.22" shape="17757.25,16829.30 17753.42,16820.08 17749.52,16812.88 17746.18,16807.40 17744.02,16803.31"/>
    </edge>
    <edge id=":376746258_1" function="internal">
        <lane id=":376746258_1_0" index="0"   speed="22.22" length="29.34" shape="17757.25,16829.30 17747.59,16801.60"/>
        <lane id=":376746258_1_1" index="1"   speed="22.22" length="29.34" shape="17760.27,16828.25 17750.61,16800.55"/>
        <lane id=":376746258_1_2" index="2"   speed="22.22" length="29.34" shape="17763.29,16827.20 17753.63,16799.49"/>
    </edge>
    <edge id=":376751686_0" function="internal">
        <lane id=":376751686_0_0" index="0"   speed="18.05" length="40.18" shape="17835.00,17050.28 17822.18,17012.21"/>
    </edge>
    <edge id=":376751686_1" function="internal">
        <lane id=":376751686_1_0" index="0"   speed="22.22" length="40.19" shape="17838.54,17049.11 17822.18,17012.21"/>
        <lane id=":376751686_1_1" index="1"   speed="22.22" length="40.19" shape="17841.46,17047.80 17825.17,17011.06"/>
        <lane id=":376751686_1_2" index="2"   speed="22.22" length="40.19" shape="17844.39,17046.49 17828.16,17009.91"/>
    </edge>
    <edge id=":392363608_0" function="internal">
        <lane id=":392363608_0_0" index="0"   speed="18.05" length="0.17" shape="21567.69,18509.27 21567.59,18509.14"/>
        <lane id=":392363608_0_1" index="1"   speed="18.05" length="0.17" shape="21567.65,18506.07 21567.53,18505.94"/>
    </edge>
    <edge id=":392363611_0" function="internal">
        <lane id=":392363611_0_0" index="0"   speed="13.89" length="8.18" shape="21653.49,18507.06 21651.10,18507.36 21649.51,18507.94 21647.91,18508.49 21645.52,18508.74"/>
        <lane id=":392363611_0_1" index="1"   speed="13.89" length="8.18" shape="21653.49,18507.06 21651.11,18506.86 21649.51,18506.34 21647.92,18505.79 21645.53,18505.54"/>
    </edge>
    <edge id=":4127392690_0" function="internal">
        <lane id=":4127392690_0_0" index="0"   speed="13.89" length="7.40" shape="17858.54,17113.81 17857.50,17111.87 17856.80,17110.54 17856.17,17109.17 17855.33,17107.15"/>
    </edge>
    <edge id=":415716575_0" function="internal">
        <lane id=":415716575_0_0" index="0"   speed="13.89" length="1.37" shape="19544.64,17940.87 19543.39,17940.31"/>
    </edge>
    <edge id=":604001411_0" function="internal">
        <lane id=":604001411_0_0" index="0"   speed="18.05" length="44.34" shape="20196.36,18246.87 20190.52,18243.14 20180.79,18237.00 20169.31,18230.16 20158.22,18224.30"/>
    </edge>
    <edge id=":604001411_1" function="internal">
        <lane id=":604001411_1_0" index="0"   speed="22.22" length="44.33" shape="20197.79,18244.08 20158.22,18224.30"/>
        <lane id=":604001411_1_1" index="1"   speed="22.22" length="44.33" shape="20199.24,18241.23 20159.59,18221.41"/>
        <lane id=":604001411_1_2" index="2"   speed="22.22" length="44.33" shape="20200.69,18238.38 20160.96,18218.52"/>
    </edge>
    <edge id=":J11_0" function="internal">
        <lane id=":J11_0_0" index="0"   speed="22.22" length="0.29" shape="20960.66,18461.64 20960.41,18461.61"/>
        <lane id=":J11_0_1" index="1"   speed="22.22" length="0.29" shape="20961.05,18458.47 20960.77,18458.43"/>
        <lane id=":J11_0_2" index="2"   speed="22.22" length="0.29" shape="20961.45,18455.29 20961.12,18455.25"/>
    </edge>
    <edge id=":J12_0" function="internal">
        <lane id=":J12_0_0" index="0"   speed="22.22" length="0.27" shape="20796.51,18442.07 20796.17,18442.02"/>
        <lane id=":J12_0_1" index="1"   speed="22.22" length="0.27" shape="20796.95,18438.90 20796.69,18438.86"/>
        <lane id=":J12_0_2" index="2"   speed="22.22" length="0.27" shape="20797.39,18435.73 20797.21,18435.70"/>
    </edge>
    <edge id=":J14_0" function="internal">
        <lane id=":J14_0_0" index="0"   speed="22.22" length="0.30" shape="20238.39,18264.40 20238.12,18264.27"/>
        <lane id=":J14_0_1" index="1"   speed="22.22" length="0.30" shape="20239.76,18261.50 20239.48,18261.38"/>
        <lane id=":J14_0_2" index="2"   speed="22.22" length="0.30" shape="20241.13,18258.61 20240.85,18258.48"/>
    </edge>
    <edge id=":J15_0" function="internal">
        <lane id=":J15_0_0" index="0"   speed="22.22" length="0.30" shape="19844.78,18070.16 19844.51,18070.03"/>
        <lane id=":J15_0_1" index="1"   speed="22.22" length="0.30" shape="19846.22,18067.31 19845.96,18067.17"/>
        <lane id=":J15_0_2" index="2"   speed="22.22" length="0.30" shape="19847.67,18064.45 19847.41,18064.32"/>
    </edge>
    <edge id=":J16_0" function="internal">
        <lane id=":J16_0_0" index="0"   speed="22.22" length="0.10" shape="19700.47,18000.61 19700.47,18000.61"/>
        <lane id=":J16_0_1" index="1"   speed="22.22" length="0.10" shape="19701.82,17997.71 19701.82,17997.71"/>
        <lane id=":J16_0_2" index="2"   speed="22.22" length="0.10" shape="19703.17,17994.81 19703.17,17994.81"/>
    </edge>
    <edge id=":J17_0" function="internal">
        <lane id=":J17_0_0" index="0"   speed="22.22" length="0.29" shape="19368.35,17841.56 19368.01,17841.39"/>
        <lane id=":J17_0_1" index="1"   speed="22.22" length="0.29" shape="19369.71,17838.66 19369.45,17838.53"/>
        <lane id=":J17_0_2" index="2"   speed="22.22" length="0.29" shape="19371.07,17835.76 19370.89,17835.68"/>
    </edge>
    <edge id=":J18_0" function="internal">
        <lane id=":J18_0_0" index="0"   speed="22.22" length="0.37" shape="19026.28,17726.39 19026.03,17726.34"/>
        <lane id=":J18_0_1" index="1"   speed="22.22" length="0.37" shape="19026.95,17723.26 19026.59,17723.19"/>
        <lane id=":J18_0_2" index="2"   speed="22.22" length="0.37" shape="19027.62,17720.13 19027.14,17720.04"/>
    </edge>
    <edge id=":J19_0" function="internal">
        <lane id=":J19_0_0" index="0"   speed="22.22" length="0.10" shape="18874.97,17697.44 18874.97,17697.44"/>
        <lane id=":J19_0_1" index="1"   speed="22.22" length="0.10" shape="18875.57,17694.30 18875.57,17694.30"/>
        <lane id=":J19_0_2" index="2"   speed="22.22" length="0.10" shape="18876.17,17691.16 18876.17,17691.16"/>
    </edge>
    <edge id=":J20_0" function="internal">
        <lane id=":J20_0_0" index="0"   speed="22.22" length="0.10" shape="17909.24,17187.27 17909.24,17187.27"/>
        <lane id=":J20_0_1" index="1"   speed="22.22" length="0.10" shape="17911.91,17185.50 17911.91,17185.50"/>
        <lane id=":J20_0_2" index="2"   speed="22.22" length="0.10" shape="17914.58,17183.73 17914.58,17183.73"/>
    </edge>
    <edge id=":J26_0" function="internal">
        <lane id=":J26_0_0" index="0"   speed="22.22" length="0.10" shape="17776.50,16884.84 17776.50,16884.84"/>
        <lane id=":J26_0_1" index="1"   speed="22.22" length="0.10" shape="17779.52,16883.79 17779.52,16883.79"/>
        <lane id=":J26_0_2" index="2"   speed="22.22" length="0.10" shape="17782.54,16882.74 17782.54,16882.74"/>
    </edge>
    <edge id=":J27_0" function="internal">
        <lane id=":J27_0_0" index="0"   speed="22.22" length="0.10" shape="17723.69,16733.45 17723.69,16733.45"/>
        <lane id=":J27_0_1" index="1"   speed="22.22" length="0.10" shape="17726.71,16732.39 17726.71,16732.39"/>
        <lane id=":J27_0_2" index="2"   speed="22.22" length="0.10" shape="17729.73,16731.33 17729.73,16731.33"/>
    </edge>
    <edge id=":J28_0" function="internal">
        <lane id=":J28_0_0" index="0"   speed="22.22" length="0.10" shape="17518.26,16160.82 17518.25,16160.82"/>
        <lane id=":J28_0_1" index="1"   speed="22.22" length="0.10" shape="17521.26,16159.72 17521.26,16159.72"/>
        <lane id=":J28_0_2" index="2"   speed="22.22" length="0.10" shape="17524.26,16158.62 17524.27,16158.62"/>
    </edge>
    <edge id=":J29_0" function="internal">
        <lane id=":J29_0_0" index="0"   speed="22.22" length="0.30" shape="17444.97,15983.16 17444.94,15983.05 17444.94,15982.97 17444.93,15982.89 17444.90,15982.79"/>
        <lane id=":J29_0_1" index="1"   speed="22.22" length="0.30" shape="17447.87,15981.80 17447.85,15981.71 17447.85,15981.65 17447.86,15981.59 17447.83,15981.50"/>
        <lane id=":J29_0_2" index="2"   speed="22.22" length="0.30" shape="17450.77,15980.44 17450.76,15980.22"/>
    </edge>
    <edge id=":J52_0" function="internal">
        <lane id=":J52_0_0" index="0"   speed="22.22" length="0.37" shape="18250.23,17485.80 18249.80,17485.58"/>
        <lane id=":J52_0_1" index="1"   speed="22.22" length="0.37" shape="18251.60,17482.91 18251.28,17482.75"/>
        <lane id=":J52_0_2" index="2"   speed="22.22" length="0.37" shape="18252.98,17480.02 18252.76,17479.91"/>
    </edge>
    <edge id=":JE2_0" function="internal">
        <lane id=":JE2_0_0" index="0"   speed="13.89" length="0.29" shape="20225.93,18263.14 20225.67,18263.00"/>
    </edge>
    <edge id=":JE3_0" function="internal">
        <lane id=":JE3_0_0" index="0"   speed="13.89" length="0.10" shape="19315.13,17822.42 19315.13,17822.42"/>
    </edge>
    <edge id=":JE4_0" function="internal">
        <lane id=":JE4_0_0" index="0"   speed="13.89" length="0.29" shape="18162.08,17442.73 18161.84,17442.57"/>
    </edge>
    <edge id=":JE4b_0" function="internal">
        <lane id=":JE4b_0_0" index="0"   speed="13.89" length="0.67" shape="17844.53,17080.19 17844.45,17080.01 17844.38,17079.89 17844.32,17079.77 17844.25,17079.58"/>
    </edge>
    <edge id=":JE5_0" function="internal">
        <lane id=":JE5_0_0" index="0"   speed="13.89" length="0.10" shape="17495.54,16111.27 17495.54,16111.27"/>
    </edge>

    <edge id="100553197" from="1162558801" to="2983345299" priority="8" type="highway.trunk_link" spreadType="center" shape="20885.08,18450.06 20860.05,18451.89 20834.17,18451.25 20813.49,18449.79 20802.14,18448.67 20667.05,18426.12 20660.43,18425.36">
        <lane id="100553197_0" index="0"   speed="13.89" length="177.33" shape="20839.49,18451.38 20834.17,18451.25 20813.49,18449.79 20802.14,18448.67 20667.05,18426.12 20664.15,18425.79">
            <param key="origId" value="100553197 100553192 100553192"/>
        </lane>
        <param key="ref" value="2"/>
    </edge>
    <edge id="107041762" from="1230701452" to="462694895" priority="8" type="highway.trunk_link" spreadType="center" shape="18983.60,17717.10 18967.44,17716.77 18945.73,17714.12 18911.36,17709.93 18737.57,17689.93">
        <lane id="107041762_0" index="0"   speed="13.89" length="167.06" shape="18936.68,17713.02 18911.36,17709.93 18770.74,17693.75">
            <param key="origId" value="107041762"/>
        </lane>
    </edge>
    <edge id="113980043" from="1291715883" to="JE4" priority="8" type="highway.trunk_link" spreadType="center" shape="18265.33,17509.48 18214.76,17479.37 18161.96,17442.65">
        <lane id="113980043_0" index="0"   speed="13.89" length="123.02" shape="18265.33,17509.48 18214.76,17479.37 18162.08,17442.73">
            <param key="origId" value="113980043"/>
        </lane>
    </edge>
    <edge id="113980043.124" from="JE4" to="1291715885" priority="8" type="highway.trunk_link" spreadType="center" shape="18161.96,17442.65 18145.85,17431.12 18131.74,17420.58 18114.04,17404.54 18102.43,17392.66">
        <lane id="113980043.124_0" index="0"   speed="13.89" length="27.49" shape="18161.84,17442.57 18145.85,17431.12 18139.58,17426.44">
            <param key="origId" value="113980043"/>
        </lane>
    </edge>
    <edge id="114320572" from="cluster_1295283770_9360462396" to="JE5" priority="8" type="highway.trunk_link" spreadType="center" shape="17542.67,16260.27 17541.72,16242.74 17526.38,16198.77 17505.71,16138.82 17499.96,16123.68 17495.54,16111.27">
        <lane id="114320572_0" index="0"   speed="13.89" length="158.01" shape="17542.73,16261.37 17541.72,16242.74 17526.38,16198.77 17505.71,16138.82 17499.96,16123.68 17495.54,16111.27">
            <param key="origId" value="114320572 114320743"/>
        </lane>
        <param key="origFrom" value="1295283770"/>
    </edge>
    <edge id="114320572.156" from="JE5" to="323158443" priority="8" type="highway.trunk_link" spreadType="center" shape="17495.54,16111.27 17487.94,16089.92 17482.78,16074.25 17476.52,16051.20">
        <lane id="114320572.156_0" index="0"   speed="13.89" length="36.01" shape="17495.54,16111.27 17487.94,16089.92 17483.76,16077.24">
            <param key="origId" value="114320572 114320743"/>
        </lane>
        <param key="origFrom" value="1295283770"/>
    </edge>
    <edge id="134575595#3" from="1292128461" to="4127392690" name="Passeig de la Vall d&amp;apos;Hebron" priority="10" type="highway.tertiary" spreadType="center" shape="17929.42,17237.02 17913.11,17211.99 17894.13,17181.95 17861.72,17123.32 17856.09,17112.59">
        <lane id="134575595#3_0" index="0"   speed="13.89" length="142.30" shape="17928.08,17237.89 17911.76,17212.85 17892.75,17182.77 17860.31,17124.08 17855.70,17115.29">
            <param key="origId" value="134575595"/>
        </lane>
        <lane id="134575595#3_1" index="1"   speed="13.89" length="142.30" shape="17930.76,17236.15 17914.46,17211.13 17895.51,17181.13 17863.13,17122.56 17858.54,17113.81">
            <param key="origId" value="134575595"/>
        </lane>
    </edge>
    <edge id="237821831" from="2456870302" to="415716575" priority="8" type="highway.trunk_link" spreadType="center" shape="19787.56,18037.53 19767.83,18031.90 19749.67,18025.82 19728.56,18019.41 19714.60,18014.83 19703.01,18010.23 19626.49,17976.06 19583.79,17958.44 19544.64,17940.87">
        <lane id="237821831_0" index="0"   speed="13.89" length="210.84" shape="19738.87,18022.54 19728.56,18019.41 19714.60,18014.83 19703.01,18010.23 19626.49,17976.06 19583.79,17958.44 19544.64,17940.87">
            <param key="origId" value="237821831 237821822"/>
        </lane>
    </edge>
    <edge id="237823368" from="2456874969" to="JE2" priority="8" type="highway.trunk_link" spreadType="center" shape="20381.02,18341.78 20349.33,18325.21 20232.30,18266.36 20225.80,18263.07">
        <lane id="237823368_0" index="0"   speed="13.89" length="175.47" shape="20382.42,18342.51 20349.33,18325.21 20232.30,18266.36 20225.93,18263.14">
            <param key="origId" value="237823368 1027602587"/>
        </lane>
    </edge>
    <edge id="237823368.177" from="JE2" to="604001411" priority="8" type="highway.trunk_link" spreadType="center" shape="20225.80,18263.07 20204.98,18252.19 20178.94,18236.12 20159.61,18221.52">
        <lane id="237823368.177_0" index="0"   speed="13.89" length="33.47" shape="20225.67,18263.00 20204.98,18252.19 20196.36,18246.87">
            <param key="origId" value="237823368 1027602587"/>
        </lane>
    </edge>
    <edge id="29379303" from="323159496" to="J14" name="Ronda de Dalt" priority="13" type="highway.trunk" spreadType="center" shape="20663.28,18416.52 20644.62,18412.68 20609.08,18403.62 20508.33,18374.11 20405.88,18337.17 20359.45,18318.19 20239.62,18261.44">
        <lane id="29379303_0" index="0"   speed="22.22" length="452.05" shape="20662.48,18419.62 20643.90,18415.80 20608.23,18406.71 20507.34,18377.15 20404.73,18340.16 20358.16,18321.12 20238.39,18264.40">
            <param key="origId" value="29379303 34211126 29380488 1027602586"/>
        </lane>
        <lane id="29379303_1" index="1"   speed="22.22" length="452.05" shape="20663.12,18416.49 20644.62,18412.68 20609.08,18403.62 20508.33,18374.11 20405.88,18337.17 20359.45,18318.19 20239.76,18261.50">
            <param key="origId" value="29379303 34211126 29380488 1027602586"/>
        </lane>
        <lane id="29379303_2" index="2"   speed="22.22" length="452.05" shape="20663.77,18413.35 20645.34,18409.56 20609.93,18400.53 20509.32,18371.07 20407.03,18334.18 20360.74,18315.26 20241.13,18258.61">
            <param key="origId" value="29379303 34211126 29380488 1027602586"/>
        </lane>
        <param key="ref" value="B-20"/>
    </edge>
    <edge id="29379303.452" from="J14" to="604001411" name="Ronda de Dalt" priority="13" type="highway.trunk" spreadType="center" shape="20239.62,18261.44 20229.65,18256.73 20199.24,18241.23">
        <lane id="29379303.452_0" index="0"   speed="22.22" length="45.01" shape="20238.12,18264.27 20228.24,18259.60 20197.79,18244.08">
            <param key="origId" value="29379303 34211126 29380488 1027602586"/>
        </lane>
        <lane id="29379303.452_1" index="1"   speed="22.22" length="45.01" shape="20239.48,18261.38 20229.65,18256.73 20199.24,18241.23">
            <param key="origId" value="29379303 34211126 29380488 1027602586"/>
        </lane>
        <lane id="29379303.452_2" index="2"   speed="22.22" length="45.01" shape="20240.85,18258.48 20231.06,18253.86 20200.69,18238.38">
            <param key="origId" value="29379303 34211126 29380488 1027602586"/>
        </lane>
        <param key="ref" value="B-20"/>
    </edge>
    <edge id="29380492#0" from="29380492#0-AddedOnRampNode" to="J15" name="Ronda de Dalt" priority="13" type="highway.trunk" spreadType="center" shape="20108.59,18197.29 20052.14,18169.30 19968.59,18129.39 19846.09,18067.24">
        <lane id="29380492#0_0" index="0"   speed="22.22" length="292.65" shape="20107.02,18200.08 20050.74,18172.18 19967.18,18132.26 19844.78,18070.16">
            <param key="origId" value="29380492"/>
        </lane>
        <lane id="29380492#0_1" index="1"   speed="22.22" length="292.65" shape="20108.44,18197.22 20052.14,18169.30 19968.59,18129.39 19846.22,18067.31">
            <param key="origId" value="29380492"/>
        </lane>
        <lane id="29380492#0_2" index="2"   speed="22.22" length="292.65" shape="20109.87,18194.35 20053.54,18166.42 19970.00,18126.52 19847.67,18064.45">
            <param key="origId" value="29380492"/>
        </lane>
        <param key="ref" value="B-20"/>
    </edge>