<?xml version="1.0" encoding="UTF-8"?>
<additional>
    <timedEvent type="SaveTLSStates"
                dest="simulation_logs/signal_states.xml"/>
</additional>