<?xml version="1.0" encoding="UTF-8"?>

<!-- generated on 2025-06-03 09:48:24 by Eclipse SUMO netedit Version 1.19.0
-->

<additional xmlns:xsi="http://www.w3.org/2001/XMLSchema-instance" xsi:noNamespaceSchemaLocation="http://sumo.dlr.de/xsd/additional_file.xsd">
    <!-- Detectors -->
    <inductionLoop id="e1_0" lane="29380609_0" pos="87.09" period="300.00" file="NUL"/>
    <inductionLoop id="e1_1" lane="29380609_1" pos="86.67" period="300.00" file="NUL"/>
    <inductionLoop id="e1_10" lane="30013884_2" pos="103.53" period="300.00" file="NUL"/>
    <inductionLoop id="e1_100" lane="34211572#1.105_2" pos="304.72" period="300.00" file="NUL"/>
    <inductionLoop id="e1_101" lane="34211572#1.105_0" pos="433.45" period="300.00" file="NUL"/>
    <inductionLoop id="e1_102" lane="34211572#1.105_1" pos="434.13" period="300.00" file="NUL"/>
    <inductionLoop id="e1_103" lane="34211572#1.105_2" pos="433.80" period="300.00" file="NUL"/>
    <inductionLoop id="e1_104" lane="34211572#1.105_0" pos="566.77" period="300.00" file="NUL"/>
    <inductionLoop id="e1_105" lane="34211572#1.105_1" pos="567.03" period="300.00" file="NUL"/>
    <inductionLoop id="e1_106" lane="34211572#1.105_2" pos="566.83" period="300.00" file="NUL"/>
    <inductionLoop id="e1_107" lane="34211572#1.713_0" pos="87.31" period="300.00" file="NUL"/>
    <inductionLoop id="e1_108" lane="34211572#1.713_1" pos="87.38" period="300.00" file="NUL"/>
    <inductionLoop id="e1_109" lane="34211572#1.713_2" pos="88.54" period="300.00" file="NUL"/>
    <inductionLoop id="e1_11" lane="30013884_0" pos="266.23" period="300.00" file="NUL"/>
    <inductionLoop id="e1_110" lane="34211542-AddedOnRampEdge.79_0" pos="17.73" period="300.00" file="NUL"/>
    <inductionLoop id="e1_111" lane="34211542-AddedOnRampEdge.79_1" pos="17.62" period="300.00" file="NUL"/>
    <inductionLoop id="e1_112" lane="34211542-AddedOnRampEdge.79_2" pos="18.67" period="300.00" file="NUL"/>
    <inductionLoop id="e1_113" lane="34211542_0" pos="95.64" period="300.00" file="NUL"/>
    <inductionLoop id="e1_114" lane="34211542_1" pos="95.94" period="300.00" file="NUL"/>
    <inductionLoop id="e1_115" lane="34211542_2" pos="95.33" period="300.00" file="NUL"/>
    <inductionLoop id="e1_116" lane="34211542_0" pos="223.49" period="300.00" file="NUL"/>
    <inductionLoop id="e1_117" lane="34211542_1" pos="224.18" period="300.00" file="NUL"/>
    <inductionLoop id="e1_118" lane="34211542_2" pos="224.34" period="300.00" file="NUL"/>
    <inductionLoop id="e1_119" lane="34211542_0" pos="350.95" period="300.00" file="NUL"/>
    <inductionLoop id="e1_12" lane="30013884_1" pos="268.40" period="300.00" file="NUL"/>
    <inductionLoop id="e1_120" lane="34211542_1" pos="350.36" period="300.00" file="NUL"/>
    <inductionLoop id="e1_121" lane="34211542_2" pos="350.74" period="300.00" file="NUL"/>
    <inductionLoop id="e1_122" lane="34211542_0" pos="467.61" period="300.00" file="NUL"/>
    <inductionLoop id="e1_123" lane="34211542_1" pos="467.87" period="300.00" file="NUL"/>
    <inductionLoop id="e1_124" lane="34211542_2" pos="467.94" period="300.00" file="NUL"/>
    <inductionLoop id="e1_125" lane="34211542_0" pos="590.17" period="300.00" file="NUL"/>
    <inductionLoop id="e1_126" lane="34211542_1" pos="591.61" period="300.00" file="NUL"/>
    <inductionLoop id="e1_127" lane="34211542_2" pos="590.58" period="300.00" file="NUL"/>
    <inductionLoop id="e1_128" lane="295497930_3" pos="47.59" period="300.00" file="NUL"/>
    <inductionLoop id="e1_129" lane="29380609_0" pos="33.55" period="300.00" file="NUL"/>
    <inductionLoop id="e1_13" lane="30013884_2" pos="268.62" period="300.00" file="NUL"/>
    <inductionLoop id="e1_130" lane="29380609_1" pos="33.42" period="300.00" file="NUL"/>
    <inductionLoop id="e1_131" lane="29380609_2" pos="34.00" period="300.00" file="NUL"/>
    <inductionLoop id="e1_132" lane="29380609_3" pos="33.56" period="300.00" file="NUL"/>
    <inductionLoop id="e1_133" lane="30013884_0" pos="6.87" period="300.00" file="NUL"/>
    <inductionLoop id="e1_134" lane="30013884_1" pos="6.68" period="300.00" file="NUL"/>
    <inductionLoop id="e1_135" lane="30013884_2" pos="6.04" period="300.00" file="NUL"/>
    <inductionLoop id="e1_136" lane="30013884_0" pos="183.89" period="300.00" file="NUL"/>
    <inductionLoop id="e1_137" lane="30013884_1" pos="185.39" period="300.00" file="NUL"/>
    <inductionLoop id="e1_138" lane="30013884_2" pos="186.82" period="300.00" file="NUL"/>
    <inductionLoop id="e1_139" lane="30013884_0" pos="355.75" period="300.00" file="NUL"/>
    <inductionLoop id="e1_14" lane="30013884_0" pos="447.29" period="300.00" file="NUL"/>
    <inductionLoop id="e1_140" lane="30013884_1" pos="356.71" period="300.00" file="NUL"/>
    <inductionLoop id="e1_141" lane="30013884_2" pos="358.03" period="300.00" file="NUL"/>
    <inductionLoop id="e1_142" lane="30013882#1_0" pos="50.98" period="300.00" file="NUL"/>
    <inductionLoop id="e1_143" lane="30013882#1_1" pos="51.05" period="300.00" file="NUL"/>
    <inductionLoop id="e1_144" lane="30013882#1_2" pos="51.87" period="300.00" file="NUL"/>
    <inductionLoop id="e1_145" lane="30013882#1_0" pos="234.42" period="300.00" file="NUL"/>
    <inductionLoop id="e1_146" lane="30013882#1_1" pos="234.53" period="300.00" file="NUL"/>
    <inductionLoop id="e1_147" lane="30013882#1_2" pos="234.50" period="300.00" file="NUL"/>
    <inductionLoop id="e1_148" lane="30013882#1.395_0" pos="54.06" period="300.00" file="NUL"/>
    <inductionLoop id="e1_149" lane="30013882#1.395_1" pos="54.83" period="300.00" file="NUL"/>
    <inductionLoop id="e1_15" lane="30013884_1" pos="446.95" period="300.00" file="NUL"/>
    <inductionLoop id="e1_150" lane="30013882#1.395_2" pos="55.52" period="300.00" file="NUL"/>
    <inductionLoop id="e1_151" lane="34211140#1_0" pos="43.30" period="300.00" file="NUL"/>
    <inductionLoop id="e1_152" lane="34211140#1_1" pos="43.30" period="300.00" file="NUL"/>
    <inductionLoop id="e1_153" lane="34211140#1_2" pos="43.30" period="300.00" file="NUL"/>
    <inductionLoop id="e1_154" lane="29379303_0" pos="61.12" period="300.00" file="NUL"/>
    <inductionLoop id="e1_155" lane="29379303_1" pos="61.08" period="300.00" file="NUL"/>
    <inductionLoop id="e1_156" lane="29379303_2" pos="61.60" period="300.00" file="NUL"/>
    <inductionLoop id="e1_157" lane="29379303_0" pos="237.63" period="300.00" file="NUL"/>
    <inductionLoop id="e1_158" lane="29379303_1" pos="237.32" period="300.00" file="NUL"/>
    <inductionLoop id="e1_159" lane="29379303_2" pos="237.91" period="300.00" file="NUL"/>
    <inductionLoop id="e1_16" lane="30013884_2" pos="447.41" period="300.00" file="NUL"/>
    <inductionLoop id="e1_160" lane="29379303_0" pos="419.01" period="300.00" file="NUL"/>
    <inductionLoop id="e1_161" lane="29379303_1" pos="418.14" period="300.00" file="NUL"/>
    <inductionLoop id="e1_162" lane="29379303_2" pos="418.03" period="300.00" file="NUL"/>
    <inductionLoop id="e1_163" lane="29380492#0-AddedOnRampEdge_0" pos="45.85" period="300.00" file="NUL"/>
    <inductionLoop id="e1_164" lane="29380492#0-AddedOnRampEdge_1" pos="45.61" period="300.00" file="NUL"/>
    <inductionLoop id="e1_165" lane="29380492#0-AddedOnRampEdge_2" pos="45.70" period="300.00" file="NUL"/>
    <inductionLoop id="e1_166" lane="29380492#0_0" pos="185.11" period="300.00" file="NUL"/>
    <inductionLoop id="e1_167" lane="29380492#0_1" pos="185.12" period="300.00" file="NUL"/>
    <inductionLoop id="e1_168" lane="29380492#0_2" pos="184.94" period="300.00" file="NUL"/>
    <inductionLoop id="e1_169" lane="29380492#1_0" pos="32.13" period="300.00" file="NUL"/>
    <inductionLoop id="e1_17" lane="30013882#1_0" pos="157.20" period="300.00" file="NUL"/>
    <inductionLoop id="e1_170" lane="29380492#1_1" pos="32.29" period="300.00" file="NUL"/>
    <inductionLoop id="e1_171" lane="29380492#1_2" pos="31.84" period="300.00" file="NUL"/>
    <inductionLoop id="e1_172" lane="29380492#1.94_0" pos="111.59" period="300.00" file="NUL"/>
    <inductionLoop id="e1_173" lane="29380492#1.94_1" pos="112.80" period="300.00" file="NUL"/>
    <inductionLoop id="e1_174" lane="29380492#1.94_2" pos="112.43" period="300.00" file="NUL"/>
    <inductionLoop id="e1_175" lane="29380492#1.94_0" pos="300.76" period="300.00" file="NUL"/>
    <inductionLoop id="e1_176" lane="29380492#1.94_1" pos="301.78" period="300.00" file="NUL"/>
    <inductionLoop id="e1_177" lane="29380492#1.94_2" pos="301.37" period="300.00" file="NUL"/>
    <inductionLoop id="e1_178" lane="29380492#1.462_0" pos="85.20" period="300.00" file="NUL"/>
    <inductionLoop id="e1_179" lane="29380492#1.462_1" pos="85.20" period="300.00" file="NUL"/>
    <inductionLoop id="e1_18" lane="30013882#1_1" pos="157.97" period="300.00" file="NUL"/>
    <inductionLoop id="e1_180" lane="29380492#1.462_2" pos="85.20" period="300.00" file="NUL"/>
    <inductionLoop id="e1_181" lane="30014458#1-AddedOffRampEdge_0" pos="6.67" period="300.00" file="NUL"/>
    <inductionLoop id="e1_182" lane="30014458#1-AddedOffRampEdge_2" pos="6.70" period="300.00" file="NUL"/>
    <inductionLoop id="e1_183" lane="34210905#1_0" pos="63.31" period="300.00" file="NUL"/>
    <inductionLoop id="e1_184" lane="30014458#1-AddedOffRampEdge_1" pos="7.27" period="300.00" file="NUL"/>
    <inductionLoop id="e1_185" lane="34210905#1_1" pos="63.31" period="300.00" file="NUL"/>
    <inductionLoop id="e1_186" lane="34210905#1_2" pos="63.31" period="300.00" file="NUL"/>
    <inductionLoop id="e1_187" lane="34210905#1.142_0" pos="95.56" period="300.00" file="NUL"/>
    <inductionLoop id="e1_188" lane="34210905#1.142_1" pos="95.75" period="300.00" file="NUL"/>
    <inductionLoop id="e1_189" lane="34210905#1.142_2" pos="94.98" period="300.00" file="NUL"/>
    <inductionLoop id="e1_19" lane="30013882#1_2" pos="157.51" period="300.00" file="NUL"/>
    <inductionLoop id="e1_190" lane="34210905#1.142_0" pos="254.06" period="300.00" file="NUL"/>
    <inductionLoop id="e1_191" lane="34210905#1.142_1" pos="254.93" period="300.00" file="NUL"/>
    <inductionLoop id="e1_192" lane="34210905#1.142_2" pos="254.56" period="300.00" file="NUL"/>
    <inductionLoop id="e1_193" lane="34210905#1.142_0" pos="412.64" period="300.00" file="NUL"/>
    <inductionLoop id="e1_194" lane="34210905#1.142_1" pos="412.66" period="300.00" file="NUL"/>
    <inductionLoop id="e1_195" lane="34210905#1.142_2" pos="413.01" period="300.00" file="NUL"/>
    <inductionLoop id="e1_196" lane="34210905#1.142_0" pos="578.15" period="300.00" file="NUL"/>
    <inductionLoop id="e1_197" lane="34210905#1.142_1" pos="578.85" period="300.00" file="NUL"/>
    <inductionLoop id="e1_198" lane="34210905#1.142_2" pos="577.71" period="300.00" file="NUL"/>
    <inductionLoop id="e1_199" lane="34210905#1.803_0" pos="87.95" period="300.00" file="NUL"/>
    <inductionLoop id="e1_2" lane="29380609_2" pos="86.29" period="300.00" file="NUL"/>
    <inductionLoop id="e1_20" lane="30013882#1_0" pos="308.34" period="300.00" file="NUL"/>
    <inductionLoop id="e1_200" lane="34210905#1.803_1" pos="87.04" period="300.00" file="NUL"/>
    <inductionLoop id="e1_201" lane="34210905#1.803_2" pos="87.79" period="300.00" file="NUL"/>
    <inductionLoop id="e1_202" lane="34210903#1-AddedOnRampEdge_0" pos="71.28" period="300.00" file="NUL"/>
    <inductionLoop id="e1_203" lane="34210903#1-AddedOnRampEdge_1" pos="71.04" period="300.00" file="NUL"/>
    <inductionLoop id="e1_204" lane="34210903#1-AddedOnRampEdge_2" pos="71.38" period="300.00" file="NUL"/>
    <inductionLoop id="e1_205" lane="34210903#1_0" pos="123.31" period="300.00" file="NUL"/>
    <inductionLoop id="e1_206" lane="34210903#1_1" pos="123.52" period="300.00" file="NUL"/>
    <inductionLoop id="e1_207" lane="34210903#1_2" pos="123.27" period="300.00" file="NUL"/>
    <inductionLoop id="e1_208" lane="34210903#1.197_0" pos="76.42" period="300.00" file="NUL"/>
    <inductionLoop id="e1_209" lane="34210903#1.197_1" pos="76.89" period="300.00" file="NUL"/>
    <inductionLoop id="e1_21" lane="30013882#1_1" pos="308.36" period="300.00" file="NUL"/>
    <inductionLoop id="e1_210" lane="34210903#1.197_2" pos="76.61" period="300.00" file="NUL"/>
    <inductionLoop id="e1_211" lane="34210903#2-AddedOnRampEdge_0" pos="13.25" period="300.00" file="NUL"/>
    <inductionLoop id="e1_212" lane="34210903#2-AddedOnRampEdge_1" pos="13.63" period="300.00" file="NUL"/>
    <inductionLoop id="e1_213" lane="34210903#2-AddedOnRampEdge_2" pos="13.81" period="300.00" file="NUL"/>
    <inductionLoop id="e1_214" lane="34211572#1_0" pos="72.13" period="300.00" file="NUL"/>
    <inductionLoop id="e1_215" lane="34211572#1_1" pos="72.13" period="300.00" file="NUL"/>
    <inductionLoop id="e1_216" lane="34211572#1_2" pos="72.13" period="300.00" file="NUL"/>
    <inductionLoop id="e1_217" lane="34211572#1.105_0" pos="112.72" period="300.00" file="NUL"/>
    <inductionLoop id="e1_218" lane="34211572#1.105_1" pos="112.52" period="300.00" file="NUL"/>
    <inductionLoop id="e1_219" lane="34211572#1.105_2" pos="112.14" period="300.00" file="NUL"/>
    <inductionLoop id="e1_22" lane="30013882#1_2" pos="308.64" period="300.00" file="NUL"/>
    <inductionLoop id="e1_220" lane="34211572#1.105_0" pos="239.64" period="300.00" file="NUL"/>
    <inductionLoop id="e1_221" lane="34211572#1.105_1" pos="239.13" period="300.00" file="NUL"/>
    <inductionLoop id="e1_222" lane="34211572#1.105_2" pos="239.37" period="300.00" file="NUL"/>
    <inductionLoop id="e1_223" lane="34211572#1.105_0" pos="365.99" period="300.00" file="NUL"/>
    <inductionLoop id="e1_224" lane="34211572#1.105_1" pos="366.05" period="300.00" file="NUL"/>
    <inductionLoop id="e1_225" lane="34211572#1.105_2" pos="366.18" period="300.00" file="NUL"/>
    <inductionLoop id="e1_226" lane="34211572#1.105_0" pos="494.10" period="300.00" file="NUL"/>
    <inductionLoop id="e1_227" lane="34211572#1.105_1" pos="493.25" period="300.00" file="NUL"/>
    <inductionLoop id="e1_228" lane="34211572#1.713_0" pos="17.88" period="300.00" file="NUL"/>
    <inductionLoop id="e1_229" lane="34211572#1.105_2" pos="493.87" period="300.00" file="NUL"/>
    <inductionLoop id="e1_23" lane="295497930_0" pos="49.84" period="300.00" file="NUL"/>
    <inductionLoop id="e1_230" lane="34211572#1.713_1" pos="18.25" period="300.00" file="NUL"/>
    <inductionLoop id="e1_231" lane="34211572#1.713_2" pos="18.63" period="300.00" file="NUL"/>
    <inductionLoop id="e1_232" lane="34211542-AddedOnRampEdge_0" pos="41.94" period="300.00" file="NUL"/>
    <inductionLoop id="e1_233" lane="34211542-AddedOnRampEdge_1" pos="42.71" period="300.00" file="NUL"/>
    <inductionLoop id="e1_234" lane="34211542-AddedOnRampEdge_2" pos="42.93" period="300.00" file="NUL"/>
    <inductionLoop id="e1_235" lane="34211542_0" pos="159.98" period="300.00" file="NUL"/>
    <inductionLoop id="e1_236" lane="34211542_1" pos="160.37" period="300.00" file="NUL"/>
    <inductionLoop id="e1_237" lane="34211542_2" pos="161.18" period="300.00" file="NUL"/>
    <inductionLoop id="e1_238" lane="34211542_0" pos="289.21" period="300.00" file="NUL"/>
    <inductionLoop id="e1_239" lane="34211542_1" pos="289.05" period="300.00" file="NUL"/>
    <inductionLoop id="e1_24" lane="295497930_1" pos="48.34" period="300.00" file="NUL"/>
    <inductionLoop id="e1_240" lane="34211542_2" pos="289.93" period="300.00" file="NUL"/>
    <inductionLoop id="e1_241" lane="34211542_0" pos="410.85" period="300.00" file="NUL"/>
    <inductionLoop id="e1_242" lane="34211542_1" pos="411.45" period="300.00" file="NUL"/>
    <inductionLoop id="e1_243" lane="34211542_2" pos="411.04" period="300.00" file="NUL"/>
    <inductionLoop id="e1_244" lane="34211542_0" pos="521.58" period="300.00" file="NUL"/>
    <inductionLoop id="e1_245" lane="34211542_1" pos="521.61" period="300.00" file="NUL"/>
    <inductionLoop id="e1_246" lane="34211542_2" pos="521.49" period="300.00" file="NUL"/>
    <inductionLoop id="e1_247" lane="34211542_0" pos="631.98" period="300.00" file="NUL"/>
    <inductionLoop id="e1_248" lane="34211542_1" pos="631.98" period="300.00" file="NUL"/>
    <inductionLoop id="e1_249" lane="34211542_2" pos="631.98" period="300.00" file="NUL"/>
    <inductionLoop id="e1_25" lane="295497930_2" pos="47.70" period="300.00" file="NUL"/>
    <inductionLoop id="e1_26" lane="34211140#1.94_0" pos="123.24" period="300.00" file="NUL"/>
    <inductionLoop id="e1_27" lane="34211140#1.94_1" pos="124.37" period="300.00" file="NUL"/>
    <inductionLoop id="e1_28" lane="34211140#1.94_2" pos="123.27" period="300.00" file="NUL"/>
    <inductionLoop id="e1_29" lane="29379303_0" pos="148.09" period="300.00" file="NUL"/>
    <inductionLoop id="e1_3" lane="29380609_3" pos="86.08" period="300.00" file="NUL"/>
    <inductionLoop id="e1_30" lane="29379303_1" pos="147.39" period="300.00" file="NUL"/>
    <inductionLoop id="e1_31" lane="29379303_2" pos="148.12" period="300.00" file="NUL"/>
    <inductionLoop id="e1_32" lane="29379303_0" pos="331.96" period="300.00" file="NUL"/>
    <inductionLoop id="e1_33" lane="29379303_1" pos="331.97" period="300.00" file="NUL"/>
    <inductionLoop id="e1_34" lane="29379303_2" pos="330.65" period="300.00" file="NUL"/>
    <inductionLoop id="e1_35" lane="29379303.452_0" pos="42.45" period="300.00" file="NUL"/>
    <inductionLoop id="e1_36" lane="29379303.452_1" pos="43.63" period="300.00" file="NUL"/>
    <inductionLoop id="e1_37" lane="29379303.452_2" pos="42.49" period="300.00" file="NUL"/>
    <inductionLoop id="e1_38" lane="29380492#0_0" pos="86.16" period="300.00" file="NUL"/>
    <inductionLoop id="e1_39" lane="29380492#0_1" pos="86.13" period="300.00" file="NUL"/>
    <inductionLoop id="e1_4" lane="295497930_0" pos="107.74" period="300.00" file="NUL"/>
    <inductionLoop id="e1_40" lane="29380492#0_2" pos="86.32" period="300.00" file="NUL"/>
    <inductionLoop id="e1_41" lane="29380492#0_0" pos="278.57" period="300.00" file="NUL"/>
    <inductionLoop id="e1_42" lane="29380492#0_1" pos="279.36" period="300.00" file="NUL"/>
    <inductionLoop id="e1_43" lane="29380492#0_2" pos="279.76" period="300.00" file="NUL"/>
    <inductionLoop id="e1_44" lane="29380492#1.94_0" pos="27.83" period="300.00" file="NUL"/>
    <inductionLoop id="e1_45" lane="29380492#1.94_1" pos="27.00" period="300.00" file="NUL"/>
    <inductionLoop id="e1_46" lane="29380492#1.94_2" pos="27.43" period="300.00" file="NUL"/>
    <inductionLoop id="e1_47" lane="29380492#1.94_0" pos="206.76" period="300.00" file="NUL"/>
    <inductionLoop id="e1_48" lane="29380492#1.94_1" pos="207.45" period="300.00" file="NUL"/>
    <inductionLoop id="e1_49" lane="29380492#1.94_2" pos="207.16" period="300.00" file="NUL"/>
    <inductionLoop id="e1_5" lane="295497930_1" pos="107.83" period="300.00" file="NUL"/>
    <inductionLoop id="e1_50" lane="29380492#1.462_0" pos="20.70" period="300.00" file="NUL"/>
    <inductionLoop id="e1_51" lane="29380492#1.462_1" pos="20.02" period="300.00" file="NUL"/>
    <inductionLoop id="e1_52" lane="29380492#1.462_2" pos="21.10" period="300.00" file="NUL"/>
    <inductionLoop id="e1_53" lane="30014458#1-AddedOnRampEdge_0" pos="62.82" period="300.00" file="NUL"/>
    <inductionLoop id="e1_54" lane="30014458#1-AddedOnRampEdge_1" pos="63.19" period="300.00" file="NUL"/>
    <inductionLoop id="e1_55" lane="30014458#1-AddedOnRampEdge_2" pos="63.35" period="300.00" file="NUL"/>
    <inductionLoop id="e1_56" lane="30014458#1-AddedOffRampEdge_0" pos="85.08" period="300.00" file="NUL"/>
    <inductionLoop id="e1_57" lane="30014458#1-AddedOffRampEdge_1" pos="84.78" period="300.00" file="NUL"/>
    <inductionLoop id="e1_58" lane="30014458#1-AddedOffRampEdge_2" pos="84.68" period="300.00" file="NUL"/>
    <inductionLoop id="e1_59" lane="34210905#1.142_0" pos="11.06" period="300.00" file="NUL"/>
    <inductionLoop id="e1_6" lane="295497930_2" pos="107.77" period="300.00" file="NUL"/>
    <inductionLoop id="e1_60" lane="34210905#1.142_1" pos="11.39" period="300.00" file="NUL"/>
    <inductionLoop id="e1_61" lane="34210905#1.142_2" pos="11.52" period="300.00" file="NUL"/>
    <inductionLoop id="e1_62" lane="34210905#1.142_0" pos="176.12" period="300.00" file="NUL"/>
    <inductionLoop id="e1_63" lane="34210905#1.142_1" pos="175.72" period="300.00" file="NUL"/>
    <inductionLoop id="e1_64" lane="34210905#1.142_2" pos="176.01" period="300.00" file="NUL"/>
    <inductionLoop id="e1_65" lane="34210905#1.142_0" pos="331.77" period="300.00" file="NUL"/>
    <inductionLoop id="e1_66" lane="34210905#1.142_1" pos="331.54" period="300.00" file="NUL"/>
    <inductionLoop id="e1_67" lane="34210905#1.142_2" pos="331.86" period="300.00" file="NUL"/>
    <inductionLoop id="e1_68" lane="34210905#1.142_0" pos="493.34" period="300.00" file="NUL"/>
    <inductionLoop id="e1_69" lane="34210905#1.142_1" pos="493.08" period="300.00" file="NUL"/>
    <inductionLoop id="e1_7" lane="295497930_3" pos="108.25" period="300.00" file="NUL"/>
    <inductionLoop id="e1_70" lane="34210905#1.142_2" pos="494.54" period="300.00" file="NUL"/>
    <inductionLoop id="e1_71" lane="34210905#1.142_0" pos="655.77" period="300.00" file="NUL"/>
    <inductionLoop id="e1_72" lane="34210905#1.142_1" pos="655.86" period="300.00" file="NUL"/>
    <inductionLoop id="e1_73" lane="34210905#1.142_2" pos="655.80" period="300.00" file="NUL"/>
    <inductionLoop id="e1_74" lane="34210903#1-AddedOnRampEdge_0" pos="2.99" period="300.00" file="NUL"/>
    <inductionLoop id="e1_75" lane="34210903#1-AddedOnRampEdge_1" pos="3.15" period="300.00" file="NUL"/>
    <inductionLoop id="e1_76" lane="34210903#1-AddedOnRampEdge_2" pos="2.61" period="300.00" file="NUL"/>
    <inductionLoop id="e1_77" lane="34210903#1_0" pos="55.79" period="300.00" file="NUL"/>
    <inductionLoop id="e1_78" lane="34210903#1_1" pos="56.55" period="300.00" file="NUL"/>
    <inductionLoop id="e1_79" lane="34210903#1_2" pos="56.30" period="300.00" file="NUL"/>
    <inductionLoop id="e1_8" lane="30013884_0" pos="99.72" period="300.00" file="NUL"/>
    <inductionLoop id="e1_80" lane="34210903#1.197_0" pos="6.11" period="300.00" file="NUL"/>
    <inductionLoop id="e1_81" lane="34210903#1.197_1" pos="6.44" period="300.00" file="NUL"/>
    <inductionLoop id="e1_82" lane="34210903#1.197_2" pos="7.36" period="300.00" file="NUL"/>
    <inductionLoop id="e1_83" lane="34210903#1.197_0" pos="150.23" period="300.00" file="NUL"/>
    <inductionLoop id="e1_84" lane="34210903#1.197_1" pos="150.53" period="300.00" file="NUL"/>
    <inductionLoop id="e1_85" lane="34210903#1.197_2" pos="150.50" period="300.00" file="NUL"/>
    <inductionLoop id="e1_86" lane="34210903#2_0" pos="24.60" period="300.00" file="NUL"/>
    <inductionLoop id="e1_87" lane="34210903#2_1" pos="26.19" period="300.00" file="NUL"/>
    <inductionLoop id="e1_88" lane="34210903#2_2" pos="25.41" period="300.00" file="NUL"/>
    <inductionLoop id="e1_89" lane="34211572#1_0" pos="2.47" period="300.00" file="NUL"/>
    <inductionLoop id="e1_9" lane="30013884_1" pos="101.25" period="300.00" file="NUL"/>
    <inductionLoop id="e1_90" lane="34211572#1_1" pos="2.93" period="300.00" file="NUL"/>
    <inductionLoop id="e1_91" lane="34211572#1_2" pos="2.74" period="300.00" file="NUL"/>
    <inductionLoop id="e1_92" lane="34211572#1.105_0" pos="55.95" period="300.00" file="NUL"/>
    <inductionLoop id="e1_93" lane="34211572#1.105_1" pos="54.89" period="300.00" file="NUL"/>
    <inductionLoop id="e1_94" lane="34211572#1.105_2" pos="55.45" period="300.00" file="NUL"/>
    <inductionLoop id="e1_95" lane="34211572#1.105_0" pos="173.35" period="300.00" file="NUL"/>
    <inductionLoop id="e1_96" lane="34211572#1.105_1" pos="173.25" period="300.00" file="NUL"/>
    <inductionLoop id="e1_97" lane="34211572#1.105_2" pos="173.07" period="300.00" file="NUL"/>
    <inductionLoop id="e1_98" lane="34211572#1.105_1" pos="305.05" period="300.00" file="NUL"/>
    <inductionLoop id="e1_99" lane="34211572#1.105_0" pos="305.02" period="300.00" file="NUL"/>
</additional>
