<?xml version="1.0" encoding="UTF-8"?>

<!-- generated on 2025-06-02 22:20:54 by Eclipse SUMO netedit Version 1.19.0
-->

<additional xmlns:xsi="http://www.w3.org/2001/XMLSchema-instance" xsi:noNamespaceSchemaLocation="http://sumo.dlr.de/xsd/additional_file.xsd">
    <!-- Shapes -->
    <poi id="poi_0" color="red" layer="202.00" x="19106.27" y="18083.92"/>
    <poi id="poi_1" color="red" layer="202.00" x="19089.65" y="18083.67"/>
    <poi id="poi_10" color="red" layer="202.00" x="19089.80" y="18044.80"/>
    <poi id="poi_11" color="red" layer="202.00" x="19106.87" y="18045.10"/>
    <poi id="poi_12" color="red" layer="202.00" x="19078.14" y="18083.70"/>
    <poi id="poi_13" color="red" layer="202.00" x="19067.32" y="18083.49"/>
    <poi id="poi_14" color="red" layer="202.00" x="19117.81" y="18083.94"/>
    <poi id="poi_15" color="red" layer="202.00" x="19117.94" y="18111.99"/>
    <poi id="poi_16" color="red" layer="202.00" x="20089.31" y="18585.08"/>
    <poi id="poi_17" color="red" layer="202.00" x="20078.31" y="18584.94"/>
    <poi id="poi_18" color="red" layer="202.00" x="20067.10" y="18585.01"/>
    <poi id="poi_19" color="red" layer="202.00" x="20106.78" y="18585.08"/>
    <poi id="poi_2" color="red" layer="202.00" x="19089.41" y="18111.85"/>
    <poi id="poi_20" color="red" layer="202.00" x="20118.20" y="18585.29"/>
    <poi id="poi_21" color="red" layer="202.00" x="20106.37" y="18611.76"/>
    <poi id="poi_22" color="red" layer="202.00" x="20118.47" y="18611.97"/>
    <poi id="poi_23" color="red" layer="202.00" x="20089.25" y="18611.56"/>
    <poi id="poi_24" color="red" layer="202.00" x="20106.01" y="18625.68"/>
    <poi id="poi_25" color="red" layer="202.00" x="20089.32" y="18625.80"/>
    <poi id="poi_26" color="red" layer="202.00" x="20106.97" y="18573.50"/>
    <poi id="poi_27" color="red" layer="202.00" x="20089.44" y="18573.09"/>
    <poi id="poi_28" color="red" layer="202.00" x="20089.71" y="18562.02"/>
    <poi id="poi_29" color="red" layer="202.00" x="20089.92" y="18550.67"/>
    <poi id="poi_3" color="red" layer="202.00" x="19106.30" y="18112.17"/>
    <poi id="poi_30" color="red" layer="202.00" x="20107.31" y="18550.54"/>
    <poi id="poi_31" color="red" layer="202.00" x="20107.25" y="18562.09"/>
    <poi id="poi_4" color="red" layer="202.00" x="19106.13" y="18126.98"/>
    <poi id="poi_5" color="red" layer="202.00" x="19089.54" y="18126.88"/>
    <poi id="poi_6" color="red" layer="202.00" x="19106.46" y="18071.50"/>
    <poi id="poi_7" color="red" layer="202.00" x="19089.71" y="18071.18"/>
    <poi id="poi_8" color="red" layer="202.00" x="19089.81" y="18058.23"/>
    <poi id="poi_9" color="red" layer="202.00" x="19106.54" y="18057.73"/>
</additional>
