<?xml version="1.0" encoding="UTF-8"?>

<!-- generated on 2025-06-04 09:08:45 by Eclipse SUMO netedit Version 1.19.0
-->

<additional xmlns:xsi="http://www.w3.org/2001/XMLSchema-instance" xsi:noNamespaceSchemaLocation="http://sumo.dlr.de/xsd/additional_file.xsd">
    <!-- Shapes -->
    <poi id="poi_0" color="red" layer="202.00" x="19165.50" y="18116.13"/>
    <poi id="poi_1" color="red" layer="202.00" x="19219.28" y="18115.67"/>
    <poi id="poi_10" color="red" layer="202.00" x="19381.49" y="18138.40"/>
    <poi id="poi_11" color="red" layer="202.00" x="19351.74" y="18138.12"/>
    <poi id="poi_12" color="red" layer="202.00" x="19326.24" y="18080.21"/>
    <poi id="poi_13" color="red" layer="202.00" x="19353.70" y="18079.99"/>
    <poi id="poi_14" color="red" layer="202.00" x="19381.10" y="18079.53"/>
    <poi id="poi_15" color="red" layer="202.00" x="19303.02" y="18076.76"/>
    <poi id="poi_16" color="red" layer="202.00" x="19303.82" y="18051.59"/>
    <poi id="poi_17" color="red" layer="202.00" x="19192.75" y="18116.25"/>
    <poi id="poi_18" color="red" layer="202.00" x="20149.12" y="18648.01"/>
    <poi id="poi_19" color="red" layer="202.00" x="19351.12" y="17736.64"/>
    <poi id="poi_2" color="red" layer="202.00" x="19190.95" y="18138.85"/>
    <poi id="poi_20" color="red" layer="202.00" x="19137.83" y="17668.13"/>
    <poi id="poi_21" color="red" layer="202.00" x="19150.45" y="17831.31"/>
    <poi id="poi_22" color="red" layer="202.00" x="18856.54" y="17810.58"/>
    <poi id="poi_23" color="red" layer="202.00" x="18607.70" y="17760.99"/>
    <poi id="poi_24" color="red" layer="202.00" x="18648.88" y="17507.43"/>
    <poi id="poi_25" color="red" layer="202.00" x="18863.09" y="17585.78"/>
    <poi id="poi_26" color="red" layer="202.00" x="18325.57" y="17698.84"/>
    <poi id="poi_27" color="red" layer="202.00" x="18337.47" y="17395.37"/>
    <poi id="poi_28" color="red" layer="202.00" x="17905.27" y="17599.13"/>
    <poi id="poi_29" color="red" layer="202.00" x="18178.99" y="17224.26"/>
    <poi id="poi_3" color="red" layer="202.00" x="19135.74" y="18139.70"/>
    <poi id="poi_30" color="red" layer="202.00" x="17764.36" y="17314.07"/>
    <poi id="poi_31" color="red" layer="202.00" x="18105.21" y="17164.74"/>
    <poi id="poi_32" color="red" layer="202.00" x="17558.81" y="17020.67"/>
    <poi id="poi_33" color="red" layer="202.00" x="18108.72" y="16915.25"/>
    <poi id="poi_34" color="red" layer="202.00" x="17985.89" y="16912.98"/>
    <poi id="poi_35" color="red" layer="202.00" x="17484.29" y="16770.42"/>
    <poi id="poi_36" color="red" layer="202.00" x="17963.45" y="16590.90"/>
    <poi id="poi_37" color="red" layer="202.00" x="17465.70" y="16661.28"/>
    <poi id="poi_38" color="red" layer="202.00" x="17113.20" y="15460.49"/>
    <poi id="poi_39" color="red" layer="202.00" x="17240.75" y="15715.59"/>
    <poi id="poi_4" color="red" layer="202.00" x="19248.91" y="18138.27"/>
    <poi id="poi_40" color="red" layer="202.00" x="17353.42" y="16023.84"/>
    <poi id="poi_41" color="red" layer="202.00" x="17485.23" y="16340.60"/>
    <poi id="poi_42" color="red" layer="202.00" x="17398.07" y="16504.29"/>
    <poi id="poi_43" color="red" layer="202.00" x="17827.49" y="16514.92"/>
    <poi id="poi_44" color="red" layer="202.00" x="17940.16" y="16701.99"/>
    <poi id="poi_45" color="red" layer="202.00" x="17778.60" y="16219.42"/>
    <poi id="poi_46" color="red" layer="202.00" x="17553.25" y="15872.91"/>
    <poi id="poi_47" color="red" layer="202.00" x="17591.52" y="15685.83"/>
    <poi id="poi_48" color="red" layer="202.00" x="17395.94" y="15409.47"/>
    <poi id="poi_49" color="red" layer="202.00" x="19418.80" y="18115.96"/>
    <poi id="poi_5" color="red" layer="202.00" x="19313.68" y="18138.50"/>
    <poi id="poi_50" color="red" layer="202.00" x="19418.99" y="18100.85"/>
    <poi id="poi_51" color="red" layer="202.00" x="19418.80" y="18080.05"/>
    <poi id="poi_52" color="red" layer="202.00" x="20178.83" y="18617.36"/>
    <poi id="poi_53" color="red" layer="202.00" x="20209.79" y="18617.99"/>
    <poi id="poi_54" color="red" layer="202.00" x="20210.11" y="18647.06"/>
    <poi id="poi_55" color="red" layer="202.00" x="20241.71" y="18617.99"/>
    <poi id="poi_56" color="red" layer="202.00" x="20272.36" y="18648.01"/>
    <poi id="poi_57" color="red" layer="202.00" x="20299.54" y="18617.99"/>
    <poi id="poi_58" color="red" layer="202.00" x="20331.77" y="18648.32"/>
    <poi id="poi_59" color="red" layer="202.00" x="20330.82" y="18618.94"/>
    <poi id="poi_6" color="red" layer="202.00" x="19279.55" y="18115.63"/>
    <poi id="poi_60" color="red" layer="202.00" x="20360.84" y="18618.30"/>
    <poi id="poi_61" color="red" layer="202.00" x="20360.21" y="18647.69"/>
    <poi id="poi_62" color="red" layer="202.00" x="20383.91" y="18616.41"/>
    <poi id="poi_63" color="red" layer="202.00" x="20383.91" y="18648.01"/>
    <poi id="poi_64" color="red" layer="202.00" x="20428.15" y="18617.04"/>
    <poi id="poi_65" color="red" layer="202.00" x="20428.46" y="18600.92"/>
    <poi id="poi_66" color="red" layer="202.00" x="20429.09" y="18582.28"/>
    <poi id="poi_67" color="red" layer="202.00" x="20381.08" y="18580.52"/>
    <poi id="poi_68" color="red" layer="202.00" x="20350.62" y="18581.70"/>
    <poi id="poi_7" color="red" layer="202.00" x="19320.77" y="18115.60"/>
    <poi id="poi_70" color="red" layer="202.00" x="20321.81" y="18582.17"/>
    <poi id="poi_71" color="red" layer="202.00" x="20323.38" y="18550.16"/>
    <poi id="poi_72" color="red" layer="202.00" x="20769.16" y="18247.76"/>
    <poi id="poi_73" color="red" layer="202.00" x="20761.53" y="18061.22"/>
    <poi id="poi_74" color="red" layer="202.00" x="20374.26" y="18050.31"/>
    <poi id="poi_75" color="red" layer="202.00" x="20541.16" y="18156.13"/>
    <poi id="poi_76" color="red" layer="202.00" x="20224.80" y="18369.94"/>
    <poi id="poi_77" color="red" layer="202.00" x="20108.08" y="18288.13"/>
    <poi id="poi_78" color="red" layer="202.00" x="19948.80" y="18296.85"/>
    <poi id="poi_79" color="red" layer="202.00" x="19895.35" y="18188.85"/>
    <poi id="poi_8" color="red" layer="202.00" x="19351.65" y="18115.33"/>
    <poi id="poi_80" color="red" layer="202.00" x="19750.26" y="18193.22"/>
    <poi id="poi_81" color="red" layer="202.00" x="19947.71" y="18240.13"/>
    <poi id="poi_82" color="red" layer="202.00" x="19751.35" y="18108.13"/>
    <poi id="poi_83" color="red" layer="202.00" x="19580.08" y="18014.31"/>
    <poi id="poi_84" color="red" layer="202.00" x="19492.81" y="18029.58"/>
    <poi id="poi_85" color="red" layer="202.00" x="19902.99" y="17943.40"/>
    <poi id="poi_86" color="red" layer="202.00" x="20031.71" y="18063.40"/>
    <poi id="poi_87" color="red" layer="202.00" x="20188.80" y="17988.13"/>
    <poi id="poi_88" color="red" layer="202.00" x="20054.62" y="17918.31"/>
    <poi id="poi_89" color="red" layer="202.00" x="20352.44" y="17997.95"/>
    <poi id="poi_9" color="red" layer="202.00" x="19381.77" y="18115.51"/>
    <poi id="poi_90" color="red" layer="202.00" x="19714.57" y="17703.88"/>
    <poi id="poi_91" color="red" layer="202.00" x="19838.17" y="17815.48"/>
    <poi id="poi_92" color="red" layer="202.00" x="19637.77" y="17826.28"/>
    <poi id="poi_93" color="red" layer="202.00" x="19479.38" y="17670.28"/>
</additional>
