<?xml version="1.0" encoding="UTF-8"?>

<!-- generated on 2025-06-04 09:04:32 by Eclipse SUMO netedit Version 1.19.0
-->

<additional xmlns:xsi="http://www.w3.org/2001/XMLSchema-instance" xsi:noNamespaceSchemaLocation="http://sumo.dlr.de/xsd/additional_file.xsd">
    <!-- Shapes -->
    <poly id="po_0" color="red" fill="0" layer="0.00" shape="21828.986713,18820.135802 21821.041079,18796.298899 21816.176405,18777.975294 21813.906224,18762.246181 21812.284666,18740.517304 21813.095445,18717.653336 21817.632444,18681.476823 21823.971262,18652.141364 21826.318495,18619.771164 21821.020865,18589.751261 21811.014230,18564.636570 21791.589587,18535.793918 21773.145987,18519.704820 21744.303334,18503.223304 21721.739355,18497.729466 21688.580116,18492.628044 21566.421217,18489.118715 21310.409878,18493.863422 21273.522676,18493.274797 21166.350632,18481.050953 21053.307087,18464.555864 20943.171021,18450.771028 20837.375304,18438.427208 20712.198855,18419.130146 20611.106899,18398.246555 20510.325897,18368.382681 20415.360975,18334.242399 20361.019296,18312.501943 20244.429276,18257.693283 20155.206451,18213.398990 20081.864760,18177.459124 19982.951263,18129.580572 19848.616019,18062.094798 19778.575464,18026.846859 19284.937381,17789.907003 19210.330423,17762.229399 19113.181307,17735.069431 18972.941858,17707.387157 18797.684738,17672.901409 18761.145338,17665.447045 18686.634078,17646.417191 18611.663205,17623.134388 18499.451392,17583.081906 18445.369679,17563.233096 18279.377274,17489.262485 18189.709981,17443.153483 18088.441080,17374.460906 18040.820516,17336.573012 17962.611561,17248.978982 17901.434778,17155.823426 17884.681554,17126.399253 17840.758141,17030.968528 17795.570745,16905.834199 17723.733754,16697.782611 17649.857788,16492.641893 17523.846104,16144.461048 17490.779593,16061.282904 17440.691102,15945.429371 17424.528251,15900.956381 17366.907368,15745.758530 17302.557040,15574.157654 17211.534925,15336.063281"/>
    <poly id="po_1" color="red" fill="0" layer="0.00" shape="19625.470694,17979.831352 19703.240616,18015.148885 19738.023035,18025.316054 19758.892486,18031.559052 19776.907995,18039.229021 19971.249674,18137.752463 20108.948812,18204.227908 20166.440827,18231.268535 20203.441832,18255.002248 20230.418660,18269.448855 20361.403538,18347.032341 20413.545256,18385.598911 20416.156792,18393.908342 20409.984072,18421.922994 20396.483330,18439.935798 20356.840224,18458.033738"/>
    <poly id="po_10" color="red" fill="0" layer="0.00" shape="20204.390000,18249.660000 20253.850000,18275.860000 20305.500000,18306.440000 20366.540000,18342.540000 20376.720000,18348.750000 20415.270000,18356.430000 20435.480000,18362.280000 20443.760000,18367.250000 20446.590000,18386.490000 20435.020000,18436.920000"/>
    <poly id="po_11" color="red" fill="0" layer="0.00" shape="20409.310000,18370.810000 20422.460000,18380.220000 20424.620000,18387.870000 20425.400000,18397.290000 20423.050000,18406.900000 20420.110000,18419.850000 20416.970000,18429.660000 20409.890000,18440.090000 20404.050000,18447.390000 20387.990000,18457.440000 20361.420000,18469.420000"/>
    <poly id="po_12" color="red" fill="0" layer="0.00" shape="20239.918758,18268.569360 20264.957875,18279.538157 20357.861043,18324.570865 20404.264357,18343.779679 20450.667672,18360.182711"/>
    <poly id="po_2" color="red" fill="0" layer="0.00" shape="19724.362597,18015.125814 19546.447700,17931.020590 19293.085022,17807.193650"/>
    <poly id="po_3" color="red" fill="0" layer="0.00" shape="19399.034336,17964.946024 19405.522997,17953.852507 19406.778867,17938.154134 19404.685750,17921.199891 19396.941219,17899.012857 19391.917740,17891.059014 19386.266326,17884.151730"/>
    <poly id="po_4" color="red" fill="0" layer="0.00" shape="19388.150130,17960.969103 19393.382921,17954.689754 19395.894661,17937.316888 19391.289805,17916.804346 19384.382521,17897.966299 19356.544072,17861.546073 19314.263120,17827.428275 19268.005247,17797.915333 19186.792329,17769.239638 19112.271319,17748.934178 18979.382078,17722.189174 18849.835962,17707.702296"/>
    <poly id="po_5" color="red" fill="0" layer="0.00" shape="18926.672716,17709.695537 18814.939242,17689.030950 18789.174215,17684.961266 18638.082349,17646.001441 18513.751233,17602.255307 18394.831647,17557.357327 18286.686600,17507.970245 18181.156915,17452.870063 18147.274762,17429.424186"/>
    <poly id="po_6" color="red" fill="0" layer="0.00" shape="18246.359453,17501.964378 18176.135397,17459.139216 18119.725909,17414.011625 18064.007149,17372.798163 18029.931214,17345.169026 17954.665732,17260.746861 17916.424882,17204.147822 17886.312004,17157.469291 17849.045875,17081.108185 17839.295092,17056.313337"/>
    <poly id="po_7" color="red" fill="0" layer="0.00" shape="17920.087293,17233.220398 17852.110407,17117.882566 17849.881656,17103.674282 17838.180717,17076.372090 17814.171395,17001.456255 17754.465474,16834.329524 17738.313063,16805.614125 17712.738411,16741.004479"/>
    <poly id="po_8" color="red" fill="0" layer="0.00" shape="17742.191806,16792.686335 17698.236361,16669.611089 17648.487454,16530.836611 17597.460771,16388.653402 17540.627637,16230.690718 17495.146112,16104.138599 17486.344212,16079.466564"/>
    <poly id="po_9" color="red" fill="0" layer="0.00" shape="17538.092749,16242.330821 17493.195402,16114.085577 17482.143747,16085.305226 17476.617919,16068.037016 17467.638450,16038.565936 17426.196652,15951.990262 17394.664991,15861.336737 17253.401649,15484.361535 17198.460119,15348.799281"/>
</additional>
