<?xml version="1.0" encoding="UTF-8"?>

<!-- generated on 2025-06-04 09:08:23 by Eclipse SUMO netedit Version 1.19.0
-->

<additional xmlns:xsi="http://www.w3.org/2001/XMLSchema-instance" xsi:noNamespaceSchemaLocation="http://sumo.dlr.de/xsd/additional_file.xsd">
    <!-- Shapes -->
    <poi id="poi_0" color="red" layer="202.00" x="19332.99" y="17853.26"/>
    <poi id="poi_1" color="red" layer="202.00" x="19398.22" y="17894.70"/>
    <poi id="poi_10" color="red" layer="202.00" x="19412.72" y="17919.65"/>
    <poi id="poi_100" color="red" layer="202.00" x="18935.17" y="17729.96"/>
    <poi id="poi_1000" color="red" layer="202.00" x="20139.72" y="18631.08"/>
    <poi id="poi_1001" color="red" layer="202.00" x="20154.28" y="18637.80"/>
    <poi id="poi_1002" color="red" layer="202.00" x="20205.22" y="18645.08"/>
    <poi id="poi_1003" color="red" layer="202.00" x="20209.14" y="18647.88"/>
    <poi id="poi_1004" color="red" layer="202.00" x="20233.77" y="18643.96"/>
    <poi id="poi_1005" color="red" layer="202.00" x="20258.40" y="18643.96"/>
    <poi id="poi_1006" color="red" layer="202.00" x="20268.48" y="18650.12"/>
    <poi id="poi_1007" color="red" layer="202.00" x="20274.63" y="18660.19"/>
    <poi id="poi_1008" color="red" layer="202.00" x="20316.62" y="18665.79"/>
    <poi id="poi_1009" color="red" layer="202.00" x="20318.30" y="18654.04"/>
    <poi id="poi_101" color="red" layer="202.00" x="18961.33" y="17732.43"/>
    <poi id="poi_1010" color="red" layer="202.00" x="20319.98" y="18646.76"/>
    <poi id="poi_1011" color="red" layer="202.00" x="20346.85" y="18644.52"/>
    <poi id="poi_1012" color="red" layer="202.00" x="20364.76" y="18643.40"/>
    <poi id="poi_1013" color="red" layer="202.00" x="20375.96" y="18643.40"/>
    <poi id="poi_1014" color="red" layer="202.00" x="20384.36" y="18645.64"/>
    <poi id="poi_1015" color="red" layer="202.00" x="20371.48" y="18631.08"/>
    <poi id="poi_1016" color="red" layer="202.00" x="20365.88" y="18629.97"/>
    <poi id="poi_1017" color="red" layer="202.00" x="20349.09" y="18634.44"/>
    <poi id="poi_1018" color="red" layer="202.00" x="20364.76" y="18656.28"/>
    <poi id="poi_1019" color="red" layer="202.00" x="20345.17" y="18674.75"/>
    <poi id="poi_102" color="red" layer="202.00" x="18889.76" y="17725.52"/>
    <poi id="poi_1020" color="red" layer="202.00" x="20292.55" y="18646.76"/>
    <poi id="poi_1021" color="red" layer="202.00" x="20274.63" y="18645.64"/>
    <poi id="poi_1022" color="red" layer="202.00" x="20270.72" y="18637.80"/>
    <poi id="poi_1023" color="red" layer="202.00" x="20302.62" y="18660.75"/>
    <poi id="poi_1024" color="red" layer="202.00" x="20258.96" y="18690.98"/>
    <poi id="poi_1025" color="red" layer="202.00" x="20242.17" y="18661.31"/>
    <poi id="poi_1026" color="red" layer="202.00" x="20290.87" y="18671.39"/>
    <poi id="poi_1027" color="red" layer="202.00" x="20281.35" y="18683.71"/>
    <poi id="poi_1028" color="red" layer="202.00" x="20266.80" y="18693.78"/>
    <poi id="poi_1029" color="red" layer="202.00" x="20257.84" y="18700.50"/>
    <poi id="poi_103" color="red" layer="202.00" x="18912.96" y="17740.82"/>
    <poi id="poi_104" color="red" layer="202.00" x="18894.20" y="17749.21"/>
    <poi id="poi_105" color="red" layer="202.00" x="18932.70" y="17783.76"/>
    <poi id="poi_106" color="red" layer="202.00" x="18899.63" y="17769.94"/>
    <poi id="poi_107" color="red" layer="202.00" x="18855.71" y="17718.11"/>
    <poi id="poi_108" color="red" layer="202.00" x="18871.01" y="17735.88"/>
    <poi id="poi_109" color="red" layer="202.00" x="18861.14" y="17760.56"/>
    <poi id="poi_11" color="red" layer="202.00" x="19403.28" y="17906.16"/>
    <poi id="poi_110" color="red" layer="202.00" x="18822.15" y="17738.84"/>
    <poi id="poi_111" color="red" layer="202.00" x="18836.95" y="17731.44"/>
    <poi id="poi_112" color="red" layer="202.00" x="18823.63" y="17716.14"/>
    <poi id="poi_113" color="red" layer="202.00" x="18814.25" y="17690.97"/>
    <poi id="poi_114" color="red" layer="202.00" x="18843.47" y="17696.71"/>
    <poi id="poi_115" color="red" layer="202.00" x="18860.73" y="17699.24"/>
    <poi id="poi_116" color="red" layer="202.00" x="18880.76" y="17703.15"/>
    <poi id="poi_117" color="red" layer="202.00" x="18807.44" y="17709.98"/>
    <poi id="poi_118" color="red" layer="202.00" x="18804.10" y="17730.00"/>
    <poi id="poi_119" color="red" layer="202.00" x="18768.50" y="17711.83"/>
    <poi id="poi_12" color="red" layer="202.00" x="19376.31" y="17997.86"/>
    <poi id="poi_120" color="red" layer="202.00" x="18747.00" y="17675.12"/>
    <poi id="poi_121" color="red" layer="202.00" x="18773.32" y="17684.02"/>
    <poi id="poi_122" color="red" layer="202.00" x="18726.23" y="17698.48"/>
    <poi id="poi_123" color="red" layer="202.00" x="18745.51" y="17692.55"/>
    <poi id="poi_124" color="red" layer="202.00" x="18712.88" y="17677.35"/>
    <poi id="poi_125" color="red" layer="202.00" x="18672.09" y="17681.80"/>
    <poi id="poi_126" color="red" layer="202.00" x="18692.86" y="17708.50"/>
    <poi id="poi_127" color="red" layer="202.00" x="18685.44" y="17679.20"/>
    <poi id="poi_128" color="red" layer="202.00" x="18659.11" y="17662.15"/>
    <poi id="poi_129" color="red" layer="202.00" x="18651.78" y="17694.16"/>
    <poi id="poi_13" color="red" layer="202.00" x="19360.47" y="17994.15"/>
    <poi id="poi_130" color="red" layer="202.00" x="18629.16" y="17680.07"/>
    <poi id="poi_131" color="red" layer="202.00" x="18646.59" y="17671.54"/>
    <poi id="poi_132" color="red" layer="202.00" x="18629.87" y="17658.51"/>
    <poi id="poi_133" color="red" layer="202.00" x="18598.87" y="17644.64"/>
    <poi id="poi_134" color="red" layer="202.00" x="18611.52" y="17668.30"/>
    <poi id="poi_135" color="red" layer="202.00" x="18606.62" y="17690.73"/>
    <poi id="poi_136" color="red" layer="202.00" x="18551.97" y="17683.80"/>
    <poi id="poi_137" color="red" layer="202.00" x="18580.93" y="17681.76"/>
    <poi id="poi_138" color="red" layer="202.00" x="18558.08" y="17654.02"/>
    <poi id="poi_139" color="red" layer="202.00" x="18590.72" y="17660.14"/>
    <poi id="poi_14" color="red" layer="202.00" x="19362.15" y="18012.69"/>
    <poi id="poi_140" color="red" layer="202.00" x="18562.98" y="17633.63"/>
    <poi id="poi_141" color="red" layer="202.00" x="18531.16" y="17631.59"/>
    <poi id="poi_142" color="red" layer="202.00" x="18538.51" y="17655.24"/>
    <poi id="poi_143" color="red" layer="202.00" x="18538.91" y="17671.15"/>
    <poi id="poi_144" color="red" layer="202.00" x="18511.99" y="17678.90"/>
    <poi id="poi_145" color="red" layer="202.00" x="18500.57" y="17650.35"/>
    <poi id="poi_146" color="red" layer="202.00" x="18475.28" y="17601.81"/>
    <poi id="poi_147" color="red" layer="202.00" x="18503.02" y="17607.11"/>
    <poi id="poi_148" color="red" layer="202.00" x="18497.72" y="17625.88"/>
    <poi id="poi_149" color="red" layer="202.00" x="18515.26" y="17634.44"/>
    <poi id="poi_15" color="red" layer="202.00" x="19337.88" y="18008.31"/>
    <poi id="poi_150" color="red" layer="202.00" x="18520.56" y="17659.73"/>
    <poi id="poi_151" color="red" layer="202.00" x="18458.15" y="17659.73"/>
    <poi id="poi_152" color="red" layer="202.00" x="18469.16" y="17643.82"/>
    <poi id="poi_153" color="red" layer="202.00" x="18443.06" y="17619.76"/>
    <poi id="poi_154" color="red" layer="202.00" x="18478.14" y="17626.69"/>
    <poi id="poi_155" color="red" layer="202.00" x="18440.61" y="17590.39"/>
    <poi id="poi_156" color="red" layer="202.00" x="18453.67" y="17608.34"/>
    <poi id="poi_157" color="red" layer="202.00" x="18435.72" y="17634.03"/>
    <poi id="poi_158" color="red" layer="202.00" x="18410.43" y="17653.61"/>
    <poi id="poi_159" color="red" layer="202.00" x="18449.99" y="17651.16"/>
    <poi id="poi_16" color="red" layer="202.00" x="19336.87" y="18028.53"/>
    <poi id="poi_160" color="red" layer="202.00" x="18406.35" y="17617.31"/>
    <poi id="poi_161" color="red" layer="202.00" x="18423.89" y="17603.44"/>
    <poi id="poi_162" color="red" layer="202.00" x="18412.06" y="17581.01"/>
    <poi id="poi_163" color="red" layer="202.00" x="18385.55" y="17564.28"/>
    <poi id="poi_164" color="red" layer="202.00" x="18396.56" y="17584.27"/>
    <poi id="poi_165" color="red" layer="202.00" x="18384.73" y="17624.65"/>
    <poi id="poi_166" color="red" layer="202.00" x="18410.84" y="17632.40"/>
    <poi id="poi_167" color="red" layer="202.00" x="18359.13" y="17544.96"/>
    <poi id="poi_168" color="red" layer="202.00" x="18309.73" y="17536.27"/>
    <poi id="poi_169" color="red" layer="202.00" x="18374.88" y="17578.07"/>
    <poi id="poi_17" color="red" layer="202.00" x="19357.10" y="18041.68"/>
    <poi id="poi_170" color="red" layer="202.00" x="18381.94" y="17604.13"/>
    <poi id="poi_171" color="red" layer="202.00" x="18307.01" y="17570.47"/>
    <poi id="poi_172" color="red" layer="202.00" x="18350.45" y="17567.22"/>
    <poi id="poi_173" color="red" layer="202.00" x="18363.48" y="17601.42"/>
    <poi id="poi_174" color="red" layer="202.00" x="18283.67" y="17543.87"/>
    <poi id="poi_175" color="red" layer="202.00" x="18328.19" y="17556.36"/>
    <poi id="poi_176" color="red" layer="202.00" x="18286.38" y="17513.47"/>
    <poi id="poi_177" color="red" layer="202.00" x="18293.44" y="17533.01"/>
    <poi id="poi_178" color="red" layer="202.00" x="18200.25" y="17464.09"/>
    <poi id="poi_179" color="red" layer="202.00" x="18223.30" y="17475.49"/>
    <poi id="poi_18" color="red" layer="202.00" x="19334.18" y="18046.06"/>
    <poi id="poi_180" color="red" layer="202.00" x="18243.82" y="17490.18"/>
    <poi id="poi_181" color="red" layer="202.00" x="18254.45" y="17496.01"/>
    <poi id="poi_182" color="red" layer="202.00" x="18270.66" y="17502.34"/>
    <poi id="poi_183" color="red" layer="202.00" x="18277.50" y="17507.40"/>
    <poi id="poi_184" color="red" layer="202.00" x="18270.66" y="17524.37"/>
    <poi id="poi_185" color="red" layer="202.00" x="18243.82" y="17527.66"/>
    <poi id="poi_186" color="red" layer="202.00" x="18221.02" y="17500.31"/>
    <poi id="poi_187" color="red" layer="202.00" x="18200.00" y="17510.95"/>
    <poi id="poi_188" color="red" layer="202.00" x="18228.11" y="17522.60"/>
    <poi id="poi_189" color="red" layer="202.00" x="18130.38" y="17462.90"/>
    <poi id="poi_19" color="red" layer="202.00" x="19308.56" y="18039.32"/>
    <poi id="poi_190" color="red" layer="202.00" x="18165.46" y="17490.23"/>
    <poi id="poi_191" color="red" layer="202.00" x="18166.68" y="17459.64"/>
    <poi id="poi_192" color="red" layer="202.00" x="18102.23" y="17434.76"/>
    <poi id="poi_193" color="red" layer="202.00" x="18061.04" y="17443.73"/>
    <poi id="poi_194" color="red" layer="202.00" x="18090.00" y="17475.55"/>
    <poi id="poi_195" color="red" layer="202.00" x="18072.46" y="17437.21"/>
    <poi id="poi_196" color="red" layer="202.00" x="18040.23" y="17401.72"/>
    <poi id="poi_197" color="red" layer="202.00" x="18055.73" y="17391.93"/>
    <poi id="poi_198" color="red" layer="202.00" x="18101.01" y="17417.22"/>
    <poi id="poi_199" color="red" layer="202.00" x="18061.04" y="17415.59"/>
    <poi id="poi_2" color="red" layer="202.00" x="19408.00" y="17911.90"/>
    <poi id="poi_20" color="red" layer="202.00" x="19326.42" y="18018.08"/>
    <poi id="poi_200" color="red" layer="202.00" x="18124.67" y="17443.73"/>
    <poi id="poi_201" color="red" layer="202.00" x="18136.09" y="17483.71"/>
    <poi id="poi_202" color="red" layer="202.00" x="18042.15" y="17376.23"/>
    <poi id="poi_203" color="red" layer="202.00" x="17975.03" y="17354.52"/>
    <poi id="poi_204" color="red" layer="202.00" x="18008.10" y="17352.05"/>
    <poi id="poi_205" color="red" layer="202.00" x="17964.17" y="17318.00"/>
    <poi id="poi_206" color="red" layer="202.00" x="17991.32" y="17325.40"/>
    <poi id="poi_207" color="red" layer="202.00" x="17991.81" y="17340.20"/>
    <poi id="poi_208" color="red" layer="202.00" x="18020.44" y="17348.59"/>
    <poi id="poi_209" color="red" layer="202.00" x="18015.50" y="17372.78"/>
    <poi id="poi_21" color="red" layer="202.00" x="19301.14" y="18054.15"/>
    <poi id="poi_210" color="red" layer="202.00" x="18014.51" y="17397.95"/>
    <poi id="poi_211" color="red" layer="202.00" x="17975.34" y="17303.08"/>
    <poi id="poi_212" color="red" layer="202.00" x="17908.49" y="17298.59"/>
    <poi id="poi_213" color="red" layer="202.00" x="17944.38" y="17297.70"/>
    <poi id="poi_214" color="red" layer="202.00" x="17929.57" y="17277.51"/>
    <poi id="poi_215" color="red" layer="202.00" x="17900.86" y="17268.08"/>
    <poi id="poi_216" color="red" layer="202.00" x="17931.37" y="17269.43"/>
    <poi id="poi_217" color="red" layer="202.00" x="17961.88" y="17286.48"/>
    <poi id="poi_218" color="red" layer="202.00" x="17903.10" y="17247.00"/>
    <poi id="poi_219" color="red" layer="202.00" x="17937.20" y="17250.58"/>
    <poi id="poi_22" color="red" layer="202.00" x="19318.33" y="18060.89"/>
    <poi id="poi_220" color="red" layer="202.00" x="17898.95" y="17231.23"/>
    <poi id="poi_221" color="red" layer="202.00" x="17866.03" y="17233.51"/>
    <poi id="poi_222" color="red" layer="202.00" x="17844.00" y="17205.90"/>
    <poi id="poi_223" color="red" layer="202.00" x="17884.77" y="17209.45"/>
    <poi id="poi_224" color="red" layer="202.00" x="17852.61" y="17221.60"/>
    <poi id="poi_225" color="red" layer="202.00" x="17846.78" y="17187.41"/>
    <poi id="poi_226" color="red" layer="202.00" x="17802.71" y="17175.25"/>
    <poi id="poi_227" color="red" layer="202.00" x="17868.31" y="17190.45"/>
    <poi id="poi_228" color="red" layer="202.00" x="17862.74" y="17203.87"/>
    <poi id="poi_229" color="red" layer="202.00" x="17830.57" y="17176.52"/>
    <poi id="poi_23" color="red" layer="202.00" x="19297.77" y="18067.30"/>
    <poi id="poi_230" color="red" layer="202.00" x="17832.09" y="17158.79"/>
    <poi id="poi_231" color="red" layer="202.00" x="17856.66" y="17158.79"/>
    <poi id="poi_232" color="red" layer="202.00" x="17878.95" y="17170.95"/>
    <poi id="poi_233" color="red" layer="202.00" x="17934.66" y="17232.24"/>
    <poi id="poi_234" color="red" layer="202.00" x="17914.91" y="17205.14"/>
    <poi id="poi_235" color="red" layer="202.00" x="17896.17" y="17173.99"/>
    <poi id="poi_236" color="red" layer="202.00" x="17877.43" y="17140.05"/>
    <poi id="poi_237" color="red" layer="202.00" x="17862.99" y="17116.75"/>
    <poi id="poi_238" color="red" layer="202.00" x="17851.09" y="17086.10"/>
    <poi id="poi_239" color="red" layer="202.00" x="17820.95" y="17082.56"/>
    <poi id="poi_24" color="red" layer="202.00" x="19314.96" y="18088.87"/>
    <poi id="poi_240" color="red" layer="202.00" x="17791.82" y="17058.50"/>
    <poi id="poi_241" color="red" layer="202.00" x="17767.00" y="17032.92"/>
    <poi id="poi_242" color="red" layer="202.00" x="17797.90" y="17031.65"/>
    <poi id="poi_243" color="red" layer="202.00" x="17815.88" y="17062.55"/>
    <poi id="poi_244" color="red" layer="202.00" x="17780.17" y="17080.79"/>
    <poi id="poi_245" color="red" layer="202.00" x="17837.92" y="17125.36"/>
    <poi id="poi_246" color="red" layer="202.00" x="17799.93" y="17119.28"/>
    <poi id="poi_247" color="red" layer="202.00" x="17832.34" y="17102.31"/>
    <poi id="poi_248" color="red" layer="202.00" x="17842.73" y="17141.06"/>
    <poi id="poi_249" color="red" layer="202.00" x="17766.51" y="17007.05"/>
    <poi id="poi_25" color="red" layer="202.00" x="19298.11" y="18084.49"/>
    <poi id="poi_250" color="red" layer="202.00" x="17813.39" y="17009.52"/>
    <poi id="poi_251" color="red" layer="202.00" x="17791.68" y="16996.68"/>
    <poi id="poi_252" color="red" layer="202.00" x="17781.81" y="16966.58"/>
    <poi id="poi_253" color="red" layer="202.00" x="17741.83" y="16971.51"/>
    <poi id="poi_254" color="red" layer="202.00" x="17764.04" y="16985.82"/>
    <poi id="poi_255" color="red" layer="202.00" x="18533.46" y="17611.38"/>
    <poi id="poi_256" color="red" layer="202.00" x="18458.88" y="17586.73"/>
    <poi id="poi_257" color="red" layer="202.00" x="18421.60" y="17572.83"/>
    <poi id="poi_258" color="red" layer="202.00" x="18318.58" y="17523.53"/>
    <poi id="poi_259" color="red" layer="202.00" x="19197.19" y="17776.79"/>
    <poi id="poi_26" color="red" layer="202.00" x="19311.59" y="18072.69"/>
    <poi id="poi_260" color="red" layer="202.00" x="19057.24" y="17742.18"/>
    <poi id="poi_261" color="red" layer="202.00" x="17774.89" y="16936.06"/>
    <poi id="poi_262" color="red" layer="202.00" x="17769.29" y="16908.62"/>
    <poi id="poi_263" color="red" layer="202.00" x="17735.15" y="16905.83"/>
    <poi id="poi_264" color="red" layer="202.00" x="17745.22" y="16928.22"/>
    <poi id="poi_265" color="red" layer="202.00" x="17756.42" y="16954.53"/>
    <poi id="poi_266" color="red" layer="202.00" x="17759.22" y="16881.19"/>
    <poi id="poi_267" color="red" layer="202.00" x="17699.88" y="16867.20"/>
    <poi id="poi_268" color="red" layer="202.00" x="17713.87" y="16821.30"/>
    <poi id="poi_269" color="red" layer="202.00" x="17745.78" y="16838.09"/>
    <poi id="poi_27" color="red" layer="202.00" x="19268.78" y="18087.52"/>
    <poi id="poi_270" color="red" layer="202.00" x="17724.51" y="16878.40"/>
    <poi id="poi_271" color="red" layer="202.00" x="17716.11" y="16923.18"/>
    <poi id="poi_272" color="red" layer="202.00" x="17732.35" y="16803.94"/>
    <poi id="poi_273" color="red" layer="202.00" x="17660.69" y="16816.82"/>
    <poi id="poi_274" color="red" layer="202.00" x="17701.00" y="16790.51"/>
    <poi id="poi_275" color="red" layer="202.00" x="17701.00" y="16770.35"/>
    <poi id="poi_276" color="red" layer="202.00" x="17664.61" y="16745.72"/>
    <poi id="poi_277" color="red" layer="202.00" x="17720.03" y="16764.75"/>
    <poi id="poi_278" color="red" layer="202.00" x="17690.92" y="16720.53"/>
    <poi id="poi_279" color="red" layer="202.00" x="17707.16" y="16712.69"/>
    <poi id="poi_28" color="red" layer="202.00" x="19248.22" y="18089.88"/>
    <poi id="poi_280" color="red" layer="202.00" x="17647.20" y="16703.52"/>
    <poi id="poi_281" color="red" layer="202.00" x="17582.85" y="16664.23"/>
    <poi id="poi_282" color="red" layer="202.00" x="17602.49" y="16597.85"/>
    <poi id="poi_283" color="red" layer="202.00" x="17641.10" y="16564.66"/>
    <poi id="poi_284" color="red" layer="202.00" x="17631.62" y="16633.75"/>
    <poi id="poi_285" color="red" layer="202.00" x="17630.27" y="16672.36"/>
    <poi id="poi_286" color="red" layer="202.00" x="17693.26" y="16684.56"/>
    <poi id="poi_287" color="red" layer="202.00" x="17662.10" y="16608.01"/>
    <poi id="poi_288" color="red" layer="202.00" x="17199.38" y="15361.79"/>
    <poi id="poi_289" color="red" layer="202.00" x="17169.50" y="15378.45"/>
    <poi id="poi_29" color="red" layer="202.00" x="19242.82" y="18076.40"/>
    <poi id="poi_290" color="red" layer="202.00" x="17177.84" y="15443.38"/>
    <poi id="poi_291" color="red" layer="202.00" x="17200.53" y="15417.52"/>
    <poi id="poi_292" color="red" layer="202.00" x="17189.61" y="15387.93"/>
    <poi id="poi_293" color="red" layer="202.00" x="17210.01" y="15403.73"/>
    <poi id="poi_294" color="red" layer="202.00" x="17229.26" y="15447.40"/>
    <poi id="poi_295" color="red" layer="202.00" x="17204.84" y="15503.42"/>
    <poi id="poi_296" color="red" layer="202.00" x="17166.63" y="15458.03"/>
    <poi id="poi_297" color="red" layer="202.00" x="17231.27" y="15483.31"/>
    <poi id="poi_298" color="red" layer="202.00" x="17204.84" y="15447.97"/>
    <poi id="poi_299" color="red" layer="202.00" x="17213.46" y="15429.01"/>
    <poi id="poi_3" color="red" layer="202.00" x="19410.70" y="17929.76"/>
    <poi id="poi_30" color="red" layer="202.00" x="19268.10" y="18079.10"/>
    <poi id="poi_300" color="red" layer="202.00" x="17254.25" y="15511.46"/>
    <poi id="poi_301" color="red" layer="202.00" x="17242.47" y="15525.82"/>
    <poi id="poi_302" color="red" layer="202.00" x="17208.00" y="15475.55"/>
    <poi id="poi_303" color="red" layer="202.00" x="17213.77" y="15550.48"/>
    <poi id="poi_304" color="red" layer="202.00" x="17275.62" y="15627.97"/>
    <poi id="poi_305" color="red" layer="202.00" x="17282.32" y="15562.40"/>
    <poi id="poi_306" color="red" layer="202.00" x="17254.01" y="15547.50"/>
    <poi id="poi_307" color="red" layer="202.00" x="17256.24" y="15591.46"/>
    <poi id="poi_308" color="red" layer="202.00" x="17198.87" y="15623.50"/>
    <poi id="poi_309" color="red" layer="202.00" x="17140.75" y="15549.73"/>
    <poi id="poi_31" color="red" layer="202.00" x="19269.12" y="18065.95"/>
    <poi id="poi_310" color="red" layer="202.00" x="17318.09" y="15665.22"/>
    <poi id="poi_311" color="red" layer="202.00" x="17218.99" y="15656.28"/>
    <poi id="poi_312" color="red" layer="202.00" x="17318.09" y="15757.61"/>
    <poi id="poi_313" color="red" layer="202.00" x="17311.38" y="15684.59"/>
    <poi id="poi_314" color="red" layer="202.00" x="17256.24" y="15673.42"/>
    <poi id="poi_315" color="red" layer="202.00" x="17268.91" y="15737.50"/>
    <poi id="poi_316" color="red" layer="202.00" x="17342.67" y="15827.65"/>
    <poi id="poi_317" color="red" layer="202.00" x="17351.62" y="15801.58"/>
    <poi id="poi_318" color="red" layer="202.00" x="17227.93" y="15786.67"/>
    <poi id="poi_319" color="red" layer="202.00" x="17194.40" y="15715.89"/>
    <poi id="poi_32" color="red" layer="202.00" x="19240.80" y="18056.51"/>
    <poi id="poi_320" color="red" layer="202.00" x="17303.93" y="15789.65"/>
    <poi id="poi_321" color="red" layer="202.00" x="17377.11" y="15847.19"/>
    <poi id="poi_322" color="red" layer="202.00" x="17264.82" y="15846.37"/>
    <poi id="poi_323" color="red" layer="202.00" x="17397.60" y="15928.33"/>
    <poi id="poi_324" color="red" layer="202.00" x="17384.48" y="15878.33"/>
    <poi id="poi_325" color="red" layer="202.00" x="17320.55" y="15868.50"/>
    <poi id="poi_326" color="red" layer="202.00" x="17291.05" y="15927.51"/>
    <poi id="poi_327" color="red" layer="202.00" x="17411.53" y="16056.19"/>
    <poi id="poi_328" color="red" layer="202.00" x="17430.38" y="16018.48"/>
    <poi id="poi_329" color="red" layer="202.00" x="17332.85" y="15957.83"/>
    <poi id="poi_33" color="red" layer="202.00" x="19261.70" y="18031.90"/>
    <poi id="poi_330" color="red" layer="202.00" x="17251.71" y="16084.87"/>
    <poi id="poi_331" color="red" layer="202.00" x="17345.96" y="16120.94"/>
    <poi id="poi_332" color="red" layer="202.00" x="17345.14" y="16041.43"/>
    <poi id="poi_333" color="red" layer="202.00" x="17377.11" y="15972.59"/>
    <poi id="poi_334" color="red" layer="202.00" x="17445.14" y="16054.55"/>
    <poi id="poi_335" color="red" layer="202.00" x="17470.54" y="16166.01"/>
    <poi id="poi_336" color="red" layer="202.00" x="17502.51" y="16256.17"/>
    <poi id="poi_337" color="red" layer="202.00" x="17428.74" y="16130.77"/>
    <poi id="poi_338" color="red" layer="202.00" x="17397.60" y="16084.87"/>
    <poi id="poi_339" color="red" layer="202.00" x="17463.99" y="16238.14"/>
    <poi id="poi_34" color="red" layer="202.00" x="19252.26" y="18014.37"/>
    <poi id="poi_340" color="red" layer="202.00" x="17422.19" y="16247.98"/>
    <poi id="poi_341" color="red" layer="202.00" x="17392.68" y="16149.62"/>
    <poi id="poi_342" color="red" layer="202.00" x="17542.69" y="16299.67"/>
    <poi id="poi_343" color="red" layer="202.00" x="17464.25" y="16276.23"/>
    <poi id="poi_344" color="red" layer="202.00" x="17578.75" y="16426.79"/>
    <poi id="poi_345" color="red" layer="202.00" x="17389.42" y="16344.75"/>
    <poi id="poi_346" color="red" layer="202.00" x="17329.91" y="16250.08"/>
    <poi id="poi_347" color="red" layer="202.00" x="17531.87" y="16314.99"/>
    <poi id="poi_348" color="red" layer="202.00" x="17476.87" y="16342.04"/>
    <poi id="poi_349" color="red" layer="202.00" x="17540.88" y="16407.86"/>
    <poi id="poi_35" color="red" layer="202.00" x="19284.62" y="18011.34"/>
    <poi id="poi_350" color="red" layer="202.00" x="17506.62" y="16522.36"/>
    <poi id="poi_351" color="red" layer="202.00" x="17601.29" y="16562.03"/>
    <poi id="poi_352" color="red" layer="202.00" x="17594.98" y="16455.64"/>
    <poi id="poi_353" color="red" layer="202.00" x="17531.87" y="16481.79"/>
    <poi id="poi_354" color="red" layer="202.00" x="17457.04" y="16418.68"/>
    <poi id="poi_355" color="red" layer="202.00" x="17411.06" y="16364.58"/>
    <poi id="poi_356" color="red" layer="202.00" x="17601.29" y="16500.72"/>
    <poi id="poi_357" color="red" layer="202.00" x="19411.05" y="17870.51"/>
    <poi id="poi_358" color="red" layer="202.00" x="19438.48" y="17894.02"/>
    <poi id="poi_359" color="red" layer="202.00" x="19465.91" y="17894.02"/>
    <poi id="poi_36" color="red" layer="202.00" x="19273.83" y="18000.55"/>
    <poi id="poi_360" color="red" layer="202.00" x="19507.90" y="17927.05"/>
    <poi id="poi_361" color="red" layer="202.00" x="19460.87" y="17930.41"/>
    <poi id="poi_362" color="red" layer="202.00" x="19500.62" y="17952.24"/>
    <poi id="poi_363" color="red" layer="202.00" x="19543.73" y="17999.83"/>
    <poi id="poi_364" color="red" layer="202.00" x="19582.35" y="17983.48"/>
    <poi id="poi_365" color="red" layer="202.00" x="19549.18" y="17935.69"/>
    <poi id="poi_366" color="red" layer="202.00" x="19579.22" y="17949.53"/>
    <poi id="poi_367" color="red" layer="202.00" x="19611.60" y="17964.67"/>
    <poi id="poi_368" color="red" layer="202.00" x="19651.29" y="17982.69"/>
    <poi id="poi_369" color="red" layer="202.00" x="19605.59" y="17986.61"/>
    <poi id="poi_37" color="red" layer="202.00" x="19283.27" y="17976.28"/>
    <poi id="poi_370" color="red" layer="202.00" x="19522.54" y="17954.75"/>
    <poi id="poi_371" color="red" layer="202.00" x="19603.76" y="18011.42"/>
    <poi id="poi_372" color="red" layer="202.00" x="19658.34" y="18023.17"/>
    <poi id="poi_373" color="red" layer="202.00" x="19633.27" y="17993.14"/>
    <poi id="poi_374" color="red" layer="202.00" x="19671.92" y="18012.99"/>
    <poi id="poi_375" color="red" layer="202.00" x="19721.02" y="18042.76"/>
    <poi id="poi_376" color="red" layer="202.00" x="19710.58" y="18026.57"/>
    <poi id="poi_377" color="red" layer="202.00" x="19689.94" y="18043.80"/>
    <poi id="poi_378" color="red" layer="202.00" x="19740.09" y="18045.89"/>
    <poi id="poi_379" color="red" layer="202.00" x="19733.30" y="18028.92"/>
    <poi id="poi_38" color="red" layer="202.00" x="19302.15" y="17966.17"/>
    <poi id="poi_380" color="red" layer="202.00" x="19763.66" y="18091.89"/>
    <poi id="poi_381" color="red" layer="202.00" x="19768.28" y="18059.50"/>
    <poi id="poi_382" color="red" layer="202.00" x="19811.77" y="18071.07"/>
    <poi id="poi_383" color="red" layer="202.00" x="19814.08" y="18104.38"/>
    <poi id="poi_384" color="red" layer="202.00" x="19779.39" y="18070.61"/>
    <poi id="poi_385" color="red" layer="202.00" x="19835.83" y="18080.78"/>
    <poi id="poi_386" color="red" layer="202.00" x="19860.35" y="18094.20"/>
    <poi id="poi_387" color="red" layer="202.00" x="19884.41" y="18138.62"/>
    <poi id="poi_388" color="red" layer="202.00" x="19838.60" y="18117.80"/>
    <poi id="poi_389" color="red" layer="202.00" x="19893.20" y="18117.33"/>
    <poi id="poi_39" color="red" layer="202.00" x="19296.08" y="17994.15"/>
    <poi id="poi_390" color="red" layer="202.00" x="19762.27" y="18040.53"/>
    <poi id="poi_391" color="red" layer="202.00" x="19926.51" y="18123.81"/>
    <poi id="poi_392" color="red" layer="202.00" x="19883.94" y="18101.14"/>
    <poi id="poi_393" color="red" layer="202.00" x="19863.59" y="18119.18"/>
    <poi id="poi_394" color="red" layer="202.00" x="19964.91" y="18142.32"/>
    <poi id="poi_395" color="red" layer="202.00" x="19951.03" y="18162.21"/>
    <poi id="poi_396" color="red" layer="202.00" x="19939.46" y="18138.15"/>
    <poi id="poi_397" color="red" layer="202.00" x="19914.48" y="18135.38"/>
    <poi id="poi_398" color="red" layer="202.00" x="20345.07" y="18365.30"/>
    <poi id="poi_399" color="red" layer="202.00" x="20363.58" y="18337.43"/>
    <poi id="poi_4" color="red" layer="202.00" x="19409.35" y="17949.99"/>
    <poi id="poi_40" color="red" layer="202.00" x="19325.75" y="17982.01"/>
    <poi id="poi_400" color="red" layer="202.00" x="20343.54" y="18327.06"/>
    <poi id="poi_401" color="red" layer="202.00" x="20335.13" y="18346.18"/>
    <poi id="poi_402" color="red" layer="202.00" x="20303.78" y="18352.30"/>
    <poi id="poi_403" color="red" layer="202.00" x="20254.07" y="18352.68"/>
    <poi id="poi_404" color="red" layer="202.00" x="20296.89" y="18336.24"/>
    <poi id="poi_405" color="red" layer="202.00" x="20285.04" y="18313.68"/>
    <poi id="poi_406" color="red" layer="202.00" x="20264.39" y="18298.39"/>
    <poi id="poi_407" color="red" layer="202.00" x="20254.45" y="18327.83"/>
    <poi id="poi_408" color="red" layer="202.00" x="19935.19" y="18189.42"/>
    <poi id="poi_409" color="red" layer="202.00" x="19960.04" y="18182.15"/>
    <poi id="poi_41" color="red" layer="202.00" x="19316.31" y="17971.90"/>
    <poi id="poi_410" color="red" layer="202.00" x="19960.80" y="18158.83"/>
    <poi id="poi_411" color="red" layer="202.00" x="19979.54" y="18159.59"/>
    <poi id="poi_412" color="red" layer="202.00" x="20012.80" y="18172.59"/>
    <poi id="poi_413" color="red" layer="202.00" x="19986.04" y="18189.42"/>
    <poi id="poi_414" color="red" layer="202.00" x="20002.10" y="18237.59"/>
    <poi id="poi_415" color="red" layer="202.00" x="20026.57" y="18213.50"/>
    <poi id="poi_416" color="red" layer="202.00" x="20034.98" y="18189.80"/>
    <poi id="poi_417" color="red" layer="202.00" x="20000.19" y="18205.86"/>
    <poi id="poi_418" color="red" layer="202.00" x="20044.92" y="18201.27"/>